
  EPA STORM WATER MANAGEMENT MODEL - VERSION 5.1 (Build 5.1.012)
  --------------------------------------------------------------

  
  *************
  Element Count
  *************
  Number of rain gages ...... 1
  Number of subcatchments ... 15
  Number of nodes ........... 25
  Number of links ........... 24
  Number of pollutants ...... 0
  Number of land uses ....... 0
  
  
  ****************
  Raingage Summary
  ****************
                                                      Data       Recording
  Name                 Data Source                    Type       Interval 
  ------------------------------------------------------------------------
  1                    20050626                       VOLUME       5 min.
  
  
  ********************
  Subcatchment Summary
  ********************
  Name                       Area     Width   %Imperv    %Slope Rain Gage            Outlet              
  -----------------------------------------------------------------------------------------------------------
  S1                         2.21    400.00     80.00    0.0500 1                    J1                  
  S2                         7.25    400.00     50.00    0.0500 1                    J0                  
  S3                         1.53    400.00     30.00    0.0500 1                    J4                  
  S4                         6.18    400.00     20.00    0.0500 1                    J8                  
  S5                         9.28    400.00     20.00    0.0500 1                    J7                  
  S6                         6.98    400.00     60.00    0.0500 1                    J5                  
  S7                         3.28    400.00     40.00    0.0500 1                    J25                 
  S8                        10.68    400.00     70.00    0.0500 1                    J11                 
  S9                        16.43    400.00     40.00    0.0500 1                    J14                 
  S10                        2.73    400.00     40.00    0.0500 1                    J9                  
  S11                        9.27    700.00     40.00    0.0500 1                    J10                 
  S12                       10.58    400.00     60.00    0.0500 1                    J17                 
  S13                       10.08    500.00     60.00    0.0500 1                    J24                 
  S14                       11.53    400.00     40.00    0.0500 1                    J15                 
  S15                        8.92    400.00     50.00    0.0500 1                    J23                 
  
  
  ************
  Node Summary
  ************
                                           Invert      Max.    Ponded    External
  Name                 Type                 Elev.     Depth      Area    Inflow  
  -------------------------------------------------------------------------------
  J0                   JUNCTION             30.99      4.00       0.0
  J1                   JUNCTION             28.99      4.00       0.0
  J2                   JUNCTION             25.99      4.00       0.0
  J3                   JUNCTION             30.99      4.00       0.0
  J4                   JUNCTION             33.99      4.00       0.0
  J5                   JUNCTION             28.99      4.00       0.0
  J6                   JUNCTION             23.79      4.00       0.0
  J7                   JUNCTION             28.39      4.00       0.0
  J8                   JUNCTION             29.99      4.00       0.0
  J9                   JUNCTION             28.69      4.00       0.0
  J10                  JUNCTION             25.99      4.00       0.0
  J11                  JUNCTION             25.69      4.00       0.0
  J12                  JUNCTION             22.79      4.00       0.0
  J13                  JUNCTION             25.29      4.00       0.0
  J14                  JUNCTION             24.59      4.00       0.0
  J15                  JUNCTION             24.19      4.00       0.0
  J16                  JUNCTION             23.39      4.00       0.0
  J17                  JUNCTION             22.09      4.00       0.0
  J18                  JUNCTION             16.00      4.00       0.0
  J20                  JUNCTION             17.70      4.00       0.0
  J21                  JUNCTION             19.00      4.00       0.0
  J23                  JUNCTION             22.29      4.00       0.0
  J24                  JUNCTION             20.89      4.00       0.0
  J25                  JUNCTION             30.19      4.00       0.0
  J19                  OUTFALL              15.50      3.60       0.0
  
  
  ************
  Link Summary
  ************
  Name             From Node        To Node          Type            Length    %Slope Roughness
  ---------------------------------------------------------------------------------------------
  C0               J0               J2               CONDUIT          214.0    2.3371    0.0110
  C1               J1               J2               CONDUIT          152.0    1.9741    0.0110
  C2               J3               J2               CONDUIT          306.0    1.6342    0.0110
  C3               J4               J3               CONDUIT          128.0    2.3444    0.0110
  C4               J2               J6               CONDUIT          293.0    0.7509    0.0110
  C5               J5               J6               CONDUIT          246.0    2.1143    0.0110
  C6               J25              J11              CONDUIT          289.0    1.5573    0.0110
  C7               J6               J12              CONDUIT          335.0    0.2985    0.0110
  C8               J7               J6               CONDUIT          187.0    2.4606    0.0110
  C9               J8               J9               CONDUIT          119.0    1.0925    0.0110
  C10              J9               J16              CONDUIT          325.0    1.6310    0.0110
  C11              J10              J11              CONDUIT          227.0    0.1322    0.0110
  C12              J12              J18              CONDUIT          401.0    1.6935    0.0110
  C13              J17              J18              CONDUIT          267.0    2.2815    0.0110
  C14              J11              J13              CONDUIT          113.0    0.3540    0.0110
  C16              J13              J17              CONDUIT          409.0    0.7824    0.0110
  C17              J24              J20              CONDUIT          329.0    0.9697    0.0110
  C18              J20              J18              CONDUIT          215.0    0.7907    0.0110
  C19              J16              J21              CONDUIT          437.0    1.0046    0.0110
  C20              J21              J20              CONDUIT          295.0    0.4407    0.0110
  C21              J23              J21              CONDUIT          204.0    1.6130    0.0110
  C23              J18              J19              CONDUIT          161.0    0.3106    0.0110
  C24              J15              J16              CONDUIT          197.0    0.4061    0.0110
  C22              J14              J12              CONDUIT          280.0    0.6429    0.0110
  
  
  *********************
  Cross Section Summary
  *********************
                                        Full     Full     Hyd.     Max.   No. of     Full
  Conduit          Shape               Depth     Area     Rad.    Width  Barrels     Flow
  ---------------------------------------------------------------------------------------
  C0               CIRCULAR             0.70     0.38     0.17     0.70        1     1.67
  C1               CIRCULAR             0.60     0.28     0.15     0.60        1     1.02
  C2               CIRCULAR             0.80     0.50     0.20     0.80        1     2.00
  C3               CIRCULAR             0.60     0.28     0.15     0.60        1     1.11
  C4               CIRCULAR             1.20     1.13     0.30     1.20        1     3.99
  C5               CIRCULAR             0.70     0.38     0.17     0.70        1     1.59
  C6               CIRCULAR             0.80     0.50     0.20     0.80        1     1.95
  C7               CIRCULAR             2.40     4.52     0.60     2.40        1    15.99
  C8               CIRCULAR             0.70     0.38     0.17     0.70        1     1.72
  C9               CIRCULAR             0.70     0.38     0.17     0.70        1     1.14
  C10              CIRCULAR             1.00     0.79     0.25     1.00        1     3.62
  C11              CIRCULAR             1.50     1.77     0.38     1.50        1     3.04
  C12              CIRCULAR             3.00     7.07     0.75     3.00        1    69.04
  C13              CIRCULAR             1.50     1.77     0.38     1.50        1    12.62
  C14              CIRCULAR             1.50     1.77     0.38     1.50        1     4.97
  C16              CIRCULAR             1.35     1.43     0.34     1.35        1     5.58
  C17              CIRCULAR             0.80     0.50     0.20     0.80        1     1.54
  C18              CIRCULAR             3.00     7.07     0.75     3.00        1    47.18
  C19              CIRCULAR             3.00     7.07     0.75     3.00        1    53.18
  C20              CIRCULAR             3.00     7.07     0.75     3.00        1    35.22
  C21              CIRCULAR             1.00     0.79     0.25     1.00        1     3.60
  C23              CIRCULAR             3.60    10.18     0.90     3.60        1    48.08
  C24              CIRCULAR             1.10     0.95     0.28     1.10        1     2.33
  C22              CIRCULAR             1.40     1.54     0.35     1.40        1     5.57
  
  
  
  *********************************************************
  NOTE: The summary statistics displayed in this report are
  based on results found at every computational time step,  
  not just on results from each reporting time step.
  *********************************************************
  
  ****************
  Analysis Options
  ****************
  Flow Units ............... CMS
  Process Models:
    Rainfall/Runoff ........ YES
    RDII ................... NO
    Snowmelt ............... NO
    Groundwater ............ NO
    Flow Routing ........... YES
    Ponding Allowed ........ NO
    Water Quality .......... NO
  Infiltration Method ...... HORTON
  Flow Routing Method ...... DYNWAVE
  Starting Date ............ 06/26/2005 03:45:00
  Ending Date .............. 06/26/2005 16:00:00
  Antecedent Dry Days ...... 0.0
  Report Time Step ......... 00:05:00
  Wet Time Step ............ 00:05:00
  Dry Time Step ............ 01:00:00
  Routing Time Step ........ 30.00 sec
  Variable Time Step ....... YES
  Maximum Trials ........... 8
  Number of Threads ........ 1
  Head Tolerance ........... 0.005000 m
  
  
  **************************        Volume         Depth
  Runoff Quantity Continuity     hectare-m            mm
  **************************     ---------       -------
  Total Precipitation ......         9.122        78.000
  Evaporation Loss .........         0.000         0.000
  Infiltration Loss ........         1.002         8.572
  Surface Runoff ...........         6.917        59.150
  Final Storage ............         1.217        10.404
  Continuity Error (%) .....        -0.161
  
  
  **************************        Volume        Volume
  Flow Routing Continuity        hectare-m      10^6 ltr
  **************************     ---------     ---------
  Dry Weather Inflow .......         0.000         0.000
  Wet Weather Inflow .......         6.909        69.092
  Groundwater Inflow .......         0.000         0.000
  RDII Inflow ..............         0.000         0.000
  External Inflow ..........         0.000         0.000
  External Outflow .........         6.878        68.785
  Flooding Loss ............         0.000         0.000
  Evaporation Loss .........         0.000         0.000
  Exfiltration Loss ........         0.000         0.000
  Initial Stored Volume ....         0.021         0.207
  Final Stored Volume ......         0.042         0.423
  Continuity Error (%) .....         0.132
  
  
  ***************************
  Time-Step Critical Elements
  ***************************
  Link C14 (49.27%)
  
  
  ********************************
  Highest Flow Instability Indexes
  ********************************
  Link C17 (2)
  Link C9 (2)
  Link C10 (2)
  Link C0 (2)
  Link C21 (2)
  
  
  *************************
  Routing Time Step Summary
  *************************
  Minimum Time Step           :    18.27 sec
  Average Time Step           :    26.76 sec
  Maximum Time Step           :    30.00 sec
  Percent in Steady State     :    -0.00
  Average Iterations per Step :     2.00
  Percent Not Converging      :     0.00
  
  
  ***************************
  Subcatchment Runoff Summary
  ***************************
  
  --------------------------------------------------------------------------------------------------------
                            Total      Total      Total      Total      Total       Total     Peak  Runoff
                           Precip      Runon       Evap      Infil     Runoff      Runoff   Runoff   Coeff
  Subcatchment                 mm         mm         mm         mm         mm    10^6 ltr      CMS
  --------------------------------------------------------------------------------------------------------
  S1                        78.00       0.00       0.00       3.22      73.08        1.61     0.22   0.937
  S2                        78.00       0.00       0.00       8.06      62.17        4.51     0.46   0.797
  S3                        78.00       0.00       0.00      11.28      62.10        0.95     0.11   0.796
  S4                        78.00       0.00       0.00      12.90      50.74        3.14     0.28   0.651
  S5                        78.00       0.00       0.00      12.90      46.27        4.29     0.37   0.593
  S6                        78.00       0.00       0.00       6.45      65.99        4.61     0.48   0.846
  S7                        78.00       0.00       0.00       9.67      62.45        2.05     0.23   0.801
  S8                        78.00       0.00       0.00       4.84      67.85        7.25     0.72   0.870
  S9                        78.00       0.00       0.00       9.67      51.01        8.38     0.75   0.654
  S10                       78.00       0.00       0.00       9.67      63.10        1.73     0.19   0.809
  S11                       78.00       0.00       0.00       9.67      60.15        5.58     0.58   0.771
  S12                       78.00       0.00       0.00       6.45      64.11        6.78     0.66   0.822
  S13                       78.00       0.00       0.00       6.45      65.40        6.59     0.67   0.839
  S14                       78.00       0.00       0.00       9.67      54.36        6.27     0.58   0.697
  S15                       78.00       0.00       0.00       8.06      60.96        5.44     0.53   0.782
  
  
  ******************
  Node Depth Summary
  ******************
  
  ---------------------------------------------------------------------------------
                                 Average  Maximum  Maximum  Time of Max    Reported
                                   Depth    Depth      HGL   Occurrence   Max Depth
  Node                 Type       Meters   Meters   Meters  days hr:min      Meters
  ---------------------------------------------------------------------------------
  J0                   JUNCTION     0.11     0.25    31.24     0  07:35        0.25
  J1                   JUNCTION     0.07     0.19    29.18     0  07:35        0.19
  J2                   JUNCTION     0.15     0.36    26.35     0  07:37        0.35
  J3                   JUNCTION     0.05     0.12    31.11     0  07:36        0.12
  J4                   JUNCTION     0.05     0.13    34.12     0  07:35        0.13
  J5                   JUNCTION     0.11     0.26    29.25     0  07:35        0.26
  J6                   JUNCTION     0.24     0.52    24.31     0  07:38        0.52
  J7                   JUNCTION     0.11     0.22    28.61     0  07:35        0.22
  J8                   JUNCTION     0.11     0.23    30.22     0  07:35        0.23
  J9                   JUNCTION     0.11     0.24    28.93     0  07:36        0.24
  J10                  JUNCTION     0.20     0.44    26.43     0  07:36        0.43
  J11                  JUNCTION     0.25     0.56    26.25     0  07:37        0.56
  J12                  JUNCTION     0.18     0.38    23.17     0  07:40        0.38
  J13                  JUNCTION     0.22     0.49    25.78     0  07:38        0.48
  J14                  JUNCTION     0.17     0.35    24.94     0  07:45        0.34
  J15                  JUNCTION     0.18     0.38    24.57     0  07:36        0.38
  J16                  JUNCTION     0.14     0.29    23.68     0  07:37        0.29
  J17                  JUNCTION     0.19     0.42    22.51     0  07:39        0.42
  J18                  JUNCTION     0.42     0.91    16.91     0  07:41        0.90
  J20                  JUNCTION     0.21     0.44    18.14     0  07:40        0.44
  J21                  JUNCTION     0.21     0.43    19.43     0  07:39        0.43
  J23                  JUNCTION     0.12     0.26    22.55     0  07:35        0.26
  J24                  JUNCTION     0.16     0.37    21.26     0  07:36        0.37
  J25                  JUNCTION     0.08     0.18    30.37     0  07:35        0.18
  J19                  OUTFALL      0.42     0.90    16.40     0  07:42        0.90
  
  
  *******************
  Node Inflow Summary
  *******************
  
  -------------------------------------------------------------------------------------------------
                                  Maximum  Maximum                  Lateral       Total        Flow
                                  Lateral    Total  Time of Max      Inflow      Inflow     Balance
                                   Inflow   Inflow   Occurrence      Volume      Volume       Error
  Node                 Type           CMS      CMS  days hr:min    10^6 ltr    10^6 ltr     Percent
  -------------------------------------------------------------------------------------------------
  J0                   JUNCTION     0.460    0.460     0  07:35        4.51        4.51      -0.146
  J1                   JUNCTION     0.220    0.220     0  07:35        1.61        1.61      -0.047
  J2                   JUNCTION     0.000    0.783     0  07:35           0        7.08      -0.081
  J3                   JUNCTION     0.000    0.107     0  07:35           0       0.951       0.080
  J4                   JUNCTION     0.108    0.108     0  07:35        0.95        0.95      -0.047
  J5                   JUNCTION     0.483    0.483     0  07:35         4.6         4.6       0.018
  J6                   JUNCTION     0.000    1.604     0  07:36           0          16       0.088
  J7                   JUNCTION     0.366    0.366     0  07:35        4.28        4.28       0.056
  J8                   JUNCTION     0.277    0.277     0  07:35        3.13        3.13       0.044
  J9                   JUNCTION     0.195    0.471     0  07:35        1.72        4.85       0.076
  J10                  JUNCTION     0.577    0.577     0  07:35        5.57        5.57       0.076
  J11                  JUNCTION     0.718    1.490     0  07:36        7.24        14.9       0.135
  J12                  JUNCTION     0.000    2.324     0  07:39           0        24.3       0.016
  J13                  JUNCTION     0.000    1.480     0  07:37           0        14.8       0.072
  J14                  JUNCTION     0.745    0.745     0  07:45        8.37        8.37       0.101
  J15                  JUNCTION     0.576    0.576     0  07:45        6.26        6.26       0.072
  J16                  JUNCTION     0.000    1.045     0  07:36           0        11.1       0.203
  J17                  JUNCTION     0.663    2.130     0  07:39        6.78        21.6       0.060
  J18                  JUNCTION     0.000    6.642     0  07:40           0        68.9       0.189
  J20                  JUNCTION     0.000    2.205     0  07:39           0          23       0.132
  J21                  JUNCTION     0.000    1.558     0  07:37           0        16.5       0.290
  J23                  JUNCTION     0.534    0.534     0  07:35        5.43        5.43       0.017
  J24                  JUNCTION     0.671    0.671     0  07:35        6.59        6.59       0.021
  J25                  JUNCTION     0.226    0.226     0  07:35        2.05        2.05       0.001
  J19                  OUTFALL      0.000    6.652     0  07:42           0        68.8       0.000
  
  
  **********************
  Node Surcharge Summary
  **********************
  
  No nodes were surcharged.
  
  
  *********************
  Node Flooding Summary
  *********************
  
  No nodes were flooded.
  
  
  ***********************
  Outfall Loading Summary
  ***********************
  
  -----------------------------------------------------------
                         Flow       Avg       Max       Total
                         Freq      Flow      Flow      Volume
  Outfall Node           Pcnt       CMS       CMS    10^6 ltr
  -----------------------------------------------------------
  J19                  100.00     1.794     6.652      68.785
  -----------------------------------------------------------
  System               100.00     1.794     6.652      68.785
  
  
  ********************
  Link Flow Summary
  ********************
  
  -----------------------------------------------------------------------------
                                 Maximum  Time of Max   Maximum    Max/    Max/
                                  |Flow|   Occurrence   |Veloc|    Full    Full
  Link                 Type          CMS  days hr:min     m/sec    Flow   Depth
  -----------------------------------------------------------------------------
  C0                   CONDUIT     0.460     0  07:35      4.43    0.27    0.43
  C1                   CONDUIT     0.219     0  07:35      1.88    0.21    0.45
  C2                   CONDUIT     0.105     0  07:36      0.83    0.05    0.30
  C3                   CONDUIT     0.107     0  07:35      2.51    0.10    0.21
  C4                   CONDUIT     0.767     0  07:37      2.04    0.19    0.37
  C5                   CONDUIT     0.483     0  07:36      2.20    0.30    0.56
  C6                   CONDUIT     0.224     0  07:36      0.99    0.11    0.46
  C7                   CONDUIT     1.600     0  07:39      2.73    0.10    0.19
  C8                   CONDUIT     0.366     0  07:35      1.80    0.21    0.53
  C9                   CONDUIT     0.277     0  07:35      2.40    0.24    0.34
  C10                  CONDUIT     0.467     0  07:36      2.81    0.13    0.27
  C11                  CONDUIT     0.570     0  07:36      1.11    0.19    0.33
  C12                  CONDUIT     2.318     0  07:40      2.59    0.03    0.21
  C13                  CONDUIT     2.128     0  07:39      2.85    0.17    0.44
  C14                  CONDUIT     1.480     0  07:37      2.70    0.30    0.35
  C16                  CONDUIT     1.481     0  07:39      3.54    0.27    0.33
  C17                  CONDUIT     0.668     0  07:36      2.68    0.43    0.50
  C18                  CONDUIT     2.200     0  07:41      1.86    0.05    0.22
  C19                  CONDUIT     1.030     0  07:38      2.17    0.02    0.12
  C20                  CONDUIT     1.545     0  07:39      2.45    0.04    0.14
  C21                  CONDUIT     0.533     0  07:35      2.29    0.15    0.34
  C23                  CONDUIT     6.652     0  07:42      3.66    0.14    0.25
  C24                  CONDUIT     0.578     0  07:36      2.37    0.25    0.30
  C22                  CONDUIT     0.743     0  07:45      2.38    0.13    0.26
  
  
  ***************************
  Flow Classification Summary
  ***************************
  
  -------------------------------------------------------------------------------------
                      Adjusted    ---------- Fraction of Time in Flow Class ---------- 
                       /Actual         Up    Down  Sub   Sup   Up    Down  Norm  Inlet 
  Conduit               Length    Dry  Dry   Dry   Crit  Crit  Crit  Crit  Ltd   Ctrl  
  -------------------------------------------------------------------------------------
  C0                      1.00   0.00  0.00  0.00  0.02  0.98  0.00  0.00  1.00  0.00
  C1                      1.00   0.00  0.01  0.00  0.63  0.36  0.00  0.00  0.99  0.00
  C2                      1.00   0.00  0.01  0.00  0.99  0.00  0.00  0.00  0.99  0.00
  C3                      1.00   0.01  0.00  0.00  0.00  0.99  0.00  0.00  0.82  0.00
  C4                      1.00   0.00  0.00  0.00  0.56  0.44  0.00  0.00  1.00  0.00
  C5                      1.00   0.00  0.01  0.00  0.34  0.65  0.00  0.00  0.99  0.00
  C6                      1.00   0.01  0.00  0.00  0.98  0.01  0.00  0.00  0.99  0.00
  C7                      1.00   0.00  0.00  0.00  0.00  1.00  0.00  0.00  0.00  0.00
  C8                      1.00   0.00  0.01  0.00  0.42  0.58  0.00  0.00  0.99  0.00
  C9                      1.00   0.01  0.00  0.00  0.01  0.98  0.00  0.00  0.60  0.00
  C10                     1.00   0.01  0.00  0.00  0.00  0.99  0.00  0.00  0.95  0.00
  C11                     1.00   0.01  0.00  0.00  0.99  0.00  0.00  0.00  0.96  0.00
  C12                     1.00   0.00  0.00  0.00  0.90  0.10  0.00  0.00  1.00  0.00
  C13                     1.00   0.00  0.01  0.00  0.22  0.77  0.00  0.00  0.99  0.00
  C14                     1.00   0.01  0.00  0.00  0.01  0.98  0.00  0.00  0.30  0.00
  C16                     1.00   0.01  0.00  0.00  0.02  0.97  0.00  0.00  0.02  0.00
  C17                     1.00   0.01  0.00  0.00  0.16  0.83  0.00  0.00  0.93  0.00
  C18                     1.00   0.00  0.01  0.00  0.99  0.00  0.00  0.00  0.99  0.00
  C19                     1.00   0.01  0.00  0.00  0.04  0.96  0.00  0.00  0.99  0.00
  C20                     1.00   0.01  0.00  0.00  0.02  0.97  0.00  0.00  0.56  0.00
  C21                     1.00   0.01  0.00  0.00  0.12  0.87  0.00  0.00  0.97  0.00
  C23                     1.00   0.00  0.00  0.00  0.00  1.00  0.00  0.00  0.59  0.00
  C24                     1.00   0.01  0.00  0.00  0.01  0.98  0.00  0.00  0.00  0.00
  C22                     1.00   0.00  0.01  0.00  0.02  0.97  0.00  0.00  0.71  0.00
  
  
  *************************
  Conduit Surcharge Summary
  *************************
  
  No conduits were surcharged.
  
  
  ********************
  Subcatchment Results
  ********************
  
  <<< Subcatchment S1 >>>
  ---------------------------------------------------
  Date        Time        Precip.    Losses    Runoff
                            mm/hr     mm/hr       CMS
  ---------------------------------------------------
   06/26/2005 03:50:00      2.400     0.224    0.0000
   06/26/2005 03:55:00     10.800     0.960    0.0000
   06/26/2005 04:00:00     14.400     1.003    0.0016
   06/26/2005 04:05:00      2.400     0.119    0.0077
   06/26/2005 04:10:00      3.600     0.170    0.0081
   06/26/2005 04:15:00     31.200     1.367    0.0096
   06/26/2005 04:20:00     24.000     0.960    0.0469
   06/26/2005 04:25:00     10.800     0.432    0.0722
   06/26/2005 04:30:00      1.200     0.048    0.0663
   06/26/2005 04:35:00      0.000     0.000    0.0466
   06/26/2005 04:40:00      0.000     0.000    0.0331
   06/26/2005 04:45:00      0.000     0.000    0.0245
   06/26/2005 04:50:00      0.000     0.000    0.0189
   06/26/2005 04:55:00      0.000     0.000    0.0149
   06/26/2005 05:00:00      0.000     0.000    0.0121
   06/26/2005 05:05:00      0.000     0.000    0.0100
   06/26/2005 05:10:00      0.000     0.000    0.0083
   06/26/2005 05:15:00      1.200     0.048    0.0071
   06/26/2005 05:20:00      0.000     0.000    0.0071
   06/26/2005 05:25:00      0.000     0.000    0.0061
   06/26/2005 05:30:00      0.000     0.000    0.0053
   06/26/2005 05:35:00      0.000     0.000    0.0046
   06/26/2005 05:40:00      1.200     0.048    0.0041
   06/26/2005 05:45:00      2.400     0.096    0.0044
   06/26/2005 05:50:00      0.000     0.000    0.0056
   06/26/2005 05:55:00      6.000     0.240    0.0049
   06/26/2005 06:00:00      0.000     0.000    0.0092
   06/26/2005 06:05:00      1.200     0.048    0.0077
   06/26/2005 06:10:00      0.000     0.000    0.0076
   06/26/2005 06:15:00      0.000     0.000    0.0065
   06/26/2005 06:20:00      0.000     0.000    0.0057
   06/26/2005 06:25:00      0.000     0.000    0.0049
   06/26/2005 06:30:00      1.200     0.048    0.0044
   06/26/2005 06:35:00      0.000     0.000    0.0047
   06/26/2005 06:40:00      0.000     0.000    0.0041
   06/26/2005 06:45:00      0.000     0.000    0.0037
   06/26/2005 06:50:00      0.000     0.000    0.0033
   06/26/2005 06:55:00      0.000     0.000    0.0030
   06/26/2005 07:00:00      4.800     0.192    0.0027
   06/26/2005 07:05:00      1.200     0.048    0.0056
   06/26/2005 07:10:00      1.200     0.048    0.0058
   06/26/2005 07:15:00      3.600     0.144    0.0059
   06/26/2005 07:20:00      2.400     0.096    0.0081
   06/26/2005 07:25:00      6.000     0.240    0.0090
   06/26/2005 07:30:00      7.200     0.288    0.0133
   06/26/2005 07:35:00     12.000     0.480    0.0187
   06/26/2005 07:40:00     39.600     1.584    0.0300
   06/26/2005 07:45:00     40.800     1.632    0.0898
   06/26/2005 07:50:00     45.600     1.824    0.1432
   06/26/2005 07:55:00     34.800     1.392    0.1913
   06/26/2005 08:00:00     12.000     0.480    0.1927
   06/26/2005 08:05:00     21.600     0.864    0.1397
   06/26/2005 08:10:00     20.400     0.816    0.1337
   06/26/2005 08:15:00     14.400     0.576    0.1278
   06/26/2005 08:20:00     42.000     1.680    0.1114
   06/26/2005 08:25:00     27.600     1.104    0.1641
   06/26/2005 08:30:00     16.800     0.672    0.1623
   06/26/2005 08:35:00      7.200     0.288    0.1364
   06/26/2005 08:40:00      2.400     0.096    0.1018
   06/26/2005 08:45:00      2.400     0.096    0.0732
   06/26/2005 08:50:00      1.200     0.048    0.0562
   06/26/2005 08:55:00      1.200     0.048    0.0435
   06/26/2005 09:00:00      6.000     0.240    0.0349
   06/26/2005 09:05:00      7.200     0.288    0.0355
   06/26/2005 09:10:00      6.000     0.240    0.0377
   06/26/2005 09:15:00      2.400     0.096    0.0375
   06/26/2005 09:20:00      4.800     0.192    0.0322
   06/26/2005 09:25:00      4.800     0.192    0.0316
   06/26/2005 09:30:00      7.200     0.288    0.0311
   06/26/2005 09:35:00     15.600     0.624    0.0340
   06/26/2005 09:40:00     15.600     0.624    0.0494
   06/26/2005 09:45:00     12.000     0.480    0.0617
   06/26/2005 09:50:00     12.000     0.480    0.0642
   06/26/2005 09:55:00      4.800     0.192    0.0660
   06/26/2005 10:00:00     12.000     0.480    0.0546
   06/26/2005 10:05:00      8.400     0.336    0.0593
   06/26/2005 10:10:00      1.200     0.048    0.0564
   06/26/2005 10:15:00      2.400     0.096    0.0427
   06/26/2005 10:20:00      4.800     0.192    0.0356
   06/26/2005 10:25:00      3.600     0.144    0.0340
   06/26/2005 10:30:00      4.800     0.192    0.0312
   06/26/2005 10:35:00     15.600     0.624    0.0307
   06/26/2005 10:40:00     12.000     0.480    0.0465
   06/26/2005 10:45:00     18.000     0.720    0.0532
   06/26/2005 10:50:00     42.000     1.680    0.0689
   06/26/2005 10:55:00     16.800     0.672    0.1313
   06/26/2005 11:00:00     14.400     0.576    0.1173
   06/26/2005 11:05:00     40.800     1.632    0.1044
   06/26/2005 11:10:00     37.200     1.488    0.1557
   06/26/2005 11:15:00     46.800     1.872    0.1801
   06/26/2005 11:20:00     27.600     1.104    0.2195
   06/26/2005 11:25:00     31.200     1.248    0.1922
   06/26/2005 11:30:00     13.200     0.528    0.1874
   06/26/2005 11:35:00      1.200     0.048    0.1421
   06/26/2005 11:40:00      1.200     0.048    0.0933
   06/26/2005 11:45:00      0.000     0.000    0.0665
   06/26/2005 11:50:00      0.000     0.000    0.0484
   06/26/2005 11:55:00      0.000     0.000    0.0368
   06/26/2005 12:00:00      0.000     0.000    0.0288
   06/26/2005 12:05:00      0.000     0.000    0.0232
   06/26/2005 12:10:00      0.000     0.000    0.0190
   06/26/2005 12:15:00      0.000     0.000    0.0159
   06/26/2005 12:20:00      0.000     0.000    0.0134
   06/26/2005 12:25:00      0.000     0.000    0.0115
   06/26/2005 12:30:00      0.000     0.000    0.0099
   06/26/2005 12:35:00      0.000     0.000    0.0087
   06/26/2005 12:40:00      0.000     0.000    0.0076
   06/26/2005 12:45:00      0.000     0.000    0.0067
   06/26/2005 12:50:00      0.000     0.000    0.0060
   06/26/2005 12:55:00      0.000     0.000    0.0054
   06/26/2005 13:00:00      0.000     0.000    0.0048
   06/26/2005 13:05:00      0.000     0.000    0.0044
   06/26/2005 13:10:00      0.000     0.000    0.0040
   06/26/2005 13:15:00      0.000     0.000    0.0036
   06/26/2005 13:20:00      0.000     0.000    0.0033
   06/26/2005 13:25:00      0.000     0.000    0.0030
   06/26/2005 13:30:00      0.000     0.000    0.0028
   06/26/2005 13:35:00      0.000     0.000    0.0026
   06/26/2005 13:40:00      0.000     0.000    0.0024
   06/26/2005 13:45:00      0.000     0.000    0.0022
   06/26/2005 13:50:00      0.000     0.000    0.0020
   06/26/2005 13:55:00      0.000     0.000    0.0019
   06/26/2005 14:00:00      0.000     0.000    0.0018
   06/26/2005 14:05:00      0.000     0.000    0.0017
   06/26/2005 14:10:00      0.000     0.000    0.0016
   06/26/2005 14:15:00      0.000     0.000    0.0015
   06/26/2005 14:20:00      0.000     0.000    0.0014
   06/26/2005 14:25:00      0.000     0.000    0.0013
   06/26/2005 14:30:00      0.000     0.000    0.0012
   06/26/2005 14:35:00      0.000     0.000    0.0012
   06/26/2005 14:40:00      0.000     0.000    0.0011
   06/26/2005 14:45:00      0.000     0.000    0.0010
   06/26/2005 14:50:00      0.000     0.000    0.0010
   06/26/2005 14:55:00      0.000     0.000    0.0009
   06/26/2005 15:00:00      0.000     0.000    0.0009
   06/26/2005 15:05:00      0.000     0.000    0.0008
   06/26/2005 15:10:00      0.000     0.000    0.0008
   06/26/2005 15:15:00      0.000     0.000    0.0008
   06/26/2005 15:20:00      0.000     0.000    0.0007
   06/26/2005 15:25:00      0.000     0.000    0.0007
   06/26/2005 15:30:00      0.000     0.000    0.0007
   06/26/2005 15:35:00      0.000     0.000    0.0006
   06/26/2005 15:40:00      0.000     0.000    0.0006
   06/26/2005 15:45:00      0.000     0.000    0.0006
   06/26/2005 15:50:00      0.000     0.000    0.0006
   06/26/2005 15:55:00      0.000     0.000    0.0005
  
  
  <<< Subcatchment S2 >>>
  ---------------------------------------------------
  Date        Time        Precip.    Losses    Runoff
                            mm/hr     mm/hr       CMS
  ---------------------------------------------------
   06/26/2005 03:50:00      2.400     0.560    0.0000
   06/26/2005 03:55:00     10.800     2.399    0.0000
   06/26/2005 04:00:00     14.400     2.508    0.0017
   06/26/2005 04:05:00      2.400     0.298    0.0083
   06/26/2005 04:10:00      3.600     0.425    0.0095
   06/26/2005 04:15:00     31.200     3.418    0.0119
   06/26/2005 04:20:00     24.000     2.400    0.0555
   06/26/2005 04:25:00     10.800     1.080    0.0939
   06/26/2005 04:30:00      1.200     0.120    0.0980
   06/26/2005 04:35:00      0.000     0.000    0.0801
   06/26/2005 04:40:00      0.000     0.000    0.0645
   06/26/2005 04:45:00      0.000     0.000    0.0530
   06/26/2005 04:50:00      0.000     0.000    0.0442
   06/26/2005 04:55:00      0.000     0.000    0.0374
   06/26/2005 05:00:00      0.000     0.000    0.0320
   06/26/2005 05:05:00      0.000     0.000    0.0277
   06/26/2005 05:10:00      0.000     0.000    0.0242
   06/26/2005 05:15:00      1.200     0.120    0.0213
   06/26/2005 05:20:00      0.000     0.000    0.0204
   06/26/2005 05:25:00      0.000     0.000    0.0182
   06/26/2005 05:30:00      0.000     0.000    0.0163
   06/26/2005 05:35:00      0.000     0.000    0.0147
   06/26/2005 05:40:00      1.200     0.120    0.0133
   06/26/2005 05:45:00      2.400     0.240    0.0134
   06/26/2005 05:50:00      0.000     0.000    0.0149
   06/26/2005 05:55:00      6.000     0.600    0.0135
   06/26/2005 06:00:00      0.000     0.000    0.0194
   06/26/2005 06:05:00      1.200     0.120    0.0174
   06/26/2005 06:10:00      0.000     0.000    0.0171
   06/26/2005 06:15:00      0.000     0.000    0.0155
   06/26/2005 06:20:00      0.000     0.000    0.0141
   06/26/2005 06:25:00      0.000     0.000    0.0129
   06/26/2005 06:30:00      1.200     0.120    0.0119
   06/26/2005 06:35:00      0.000     0.000    0.0122
   06/26/2005 06:40:00      0.000     0.000    0.0112
   06/26/2005 06:45:00      0.000     0.000    0.0104
   06/26/2005 06:50:00      0.000     0.000    0.0097
   06/26/2005 06:55:00      0.000     0.000    0.0090
   06/26/2005 07:00:00      4.800     0.480    0.0085
   06/26/2005 07:05:00      1.200     0.120    0.0126
   06/26/2005 07:10:00      1.200     0.120    0.0129
   06/26/2005 07:15:00      3.600     0.360    0.0131
   06/26/2005 07:20:00      2.400     0.240    0.0161
   06/26/2005 07:25:00      6.000     0.600    0.0175
   06/26/2005 07:30:00      7.200     0.720    0.0235
   06/26/2005 07:35:00     12.000     1.200    0.0312
   06/26/2005 07:40:00     39.600     3.960    0.0469
   06/26/2005 07:45:00     40.800     4.080    0.1248
   06/26/2005 07:50:00     45.600     4.560    0.2092
   06/26/2005 07:55:00     34.800     3.480    0.2989
   06/26/2005 08:00:00     12.000     1.200    0.3320
   06/26/2005 08:05:00     21.600     2.160    0.2788
   06/26/2005 08:10:00     20.400     2.040    0.2761
   06/26/2005 08:15:00     14.400     1.440    0.2717
   06/26/2005 08:20:00     42.000     4.200    0.2507
   06/26/2005 08:25:00     27.600     2.760    0.3280
   06/26/2005 08:30:00     16.800     1.680    0.3373
   06/26/2005 08:35:00      7.200     0.720    0.3085
   06/26/2005 08:40:00      2.400     0.240    0.2592
   06/26/2005 08:45:00      2.400     0.240    0.2125
   06/26/2005 08:50:00      1.200     0.120    0.1805
   06/26/2005 08:55:00      1.200     0.120    0.1546
   06/26/2005 09:00:00      6.000     0.600    0.1356
   06/26/2005 09:05:00      7.200     0.720    0.1321
   06/26/2005 09:10:00      6.000     0.600    0.1321
   06/26/2005 09:15:00      2.400     0.240    0.1292
   06/26/2005 09:20:00      4.800     0.480    0.1188
   06/26/2005 09:25:00      4.800     0.480    0.1157
   06/26/2005 09:30:00      7.200     0.720    0.1131
   06/26/2005 09:35:00     15.600     1.560    0.1160
   06/26/2005 09:40:00     15.600     1.560    0.1379
   06/26/2005 09:45:00     12.000     1.200    0.1572
   06/26/2005 09:50:00     12.000     1.200    0.1642
   06/26/2005 09:55:00      4.800     0.480    0.1700
   06/26/2005 10:00:00     12.000     1.200    0.1561
   06/26/2005 10:05:00      8.400     0.840    0.1636
   06/26/2005 10:10:00      1.200     0.120    0.1605
   06/26/2005 10:15:00      2.400     0.240    0.1405
   06/26/2005 10:20:00      4.800     0.480    0.1280
   06/26/2005 10:25:00      3.600     0.360    0.1235
   06/26/2005 10:30:00      4.800     0.480    0.1172
   06/26/2005 10:35:00     15.600     1.560    0.1146
   06/26/2005 10:40:00     12.000     1.200    0.1367
   06/26/2005 10:45:00     18.000     1.800    0.1474
   06/26/2005 10:50:00     42.000     4.200    0.1720
   06/26/2005 10:55:00     16.800     1.680    0.2644
   06/26/2005 11:00:00     14.400     1.440    0.2617
   06/26/2005 11:05:00     40.800     4.080    0.2530
   06/26/2005 11:10:00     37.200     3.720    0.3329
   06/26/2005 11:15:00     46.800     4.680    0.3843
   06/26/2005 11:20:00     27.600     2.760    0.4602
   06/26/2005 11:25:00     31.200     3.120    0.4428
   06/26/2005 11:30:00     13.200     1.320    0.4467
   06/26/2005 11:35:00      1.200     0.120    0.3856
   06/26/2005 11:40:00      1.200     0.120    0.3067
   06/26/2005 11:45:00      0.000     0.000    0.2548
   06/26/2005 11:50:00      0.000     0.000    0.2154
   06/26/2005 11:55:00      0.000     0.000    0.1867
   06/26/2005 12:00:00      0.000     0.000    0.1650
   06/26/2005 12:05:00      0.000     0.000    0.1480
   06/26/2005 12:10:00      0.000     0.000    0.1343
   06/26/2005 12:15:00      0.000     0.000    0.1230
   06/26/2005 12:20:00      0.000     0.000    0.1136
   06/26/2005 12:25:00      0.000     0.000    0.1055
   06/26/2005 12:30:00      0.000     0.000    0.0985
   06/26/2005 12:35:00      0.000     0.000    0.0923
   06/26/2005 12:40:00      0.000     0.000    0.0869
   06/26/2005 12:45:00      0.000     0.000    0.0820
   06/26/2005 12:50:00      0.000     0.000    0.0776
   06/26/2005 12:55:00      0.000     0.000    0.0736
   06/26/2005 13:00:00      0.000     0.000    0.0700
   06/26/2005 13:05:00      0.000     0.000    0.0666
   06/26/2005 13:10:00      0.000     0.000    0.0636
   06/26/2005 13:15:00      0.000     0.000    0.0607
   06/26/2005 13:20:00      0.000     0.000    0.0581
   06/26/2005 13:25:00      0.000     0.000    0.0556
   06/26/2005 13:30:00      0.000     0.000    0.0534
   06/26/2005 13:35:00      0.000     0.000    0.0512
   06/26/2005 13:40:00      0.000     0.000    0.0492
   06/26/2005 13:45:00      0.000     0.000    0.0473
   06/26/2005 13:50:00      0.000     0.000    0.0455
   06/26/2005 13:55:00      0.000     0.000    0.0439
   06/26/2005 14:00:00      0.000     0.000    0.0423
   06/26/2005 14:05:00      0.000     0.000    0.0408
   06/26/2005 14:10:00      0.000     0.000    0.0394
   06/26/2005 14:15:00      0.000     0.000    0.0380
   06/26/2005 14:20:00      0.000     0.000    0.0368
   06/26/2005 14:25:00      0.000     0.000    0.0355
   06/26/2005 14:30:00      0.000     0.000    0.0344
   06/26/2005 14:35:00      0.000     0.000    0.0333
   06/26/2005 14:40:00      0.000     0.000    0.0322
   06/26/2005 14:45:00      0.000     0.000    0.0312
   06/26/2005 14:50:00      0.000     0.000    0.0303
   06/26/2005 14:55:00      0.000     0.000    0.0294
   06/26/2005 15:00:00      0.000     0.000    0.0285
   06/26/2005 15:05:00      0.000     0.000    0.0277
   06/26/2005 15:10:00      0.000     0.000    0.0269
   06/26/2005 15:15:00      0.000     0.000    0.0261
   06/26/2005 15:20:00      0.000     0.000    0.0253
   06/26/2005 15:25:00      0.000     0.000    0.0246
   06/26/2005 15:30:00      0.000     0.000    0.0240
   06/26/2005 15:35:00      0.000     0.000    0.0233
   06/26/2005 15:40:00      0.000     0.000    0.0227
   06/26/2005 15:45:00      0.000     0.000    0.0221
   06/26/2005 15:50:00      0.000     0.000    0.0215
   06/26/2005 15:55:00      0.000     0.000    0.0209
  
  
  <<< Subcatchment S3 >>>
  ---------------------------------------------------
  Date        Time        Precip.    Losses    Runoff
                            mm/hr     mm/hr       CMS
  ---------------------------------------------------
   06/26/2005 03:50:00      2.400     0.784    0.0000
   06/26/2005 03:55:00     10.800     3.359    0.0000
   06/26/2005 04:00:00     14.400     3.511    0.0013
   06/26/2005 04:05:00      2.400     0.417    0.0057
   06/26/2005 04:10:00      3.600     0.595    0.0043
   06/26/2005 04:15:00     31.200     4.785    0.0044
   06/26/2005 04:20:00     24.000     3.360    0.0259
   06/26/2005 04:25:00     10.800     1.512    0.0301
   06/26/2005 04:30:00      1.200     0.168    0.0205
   06/26/2005 04:35:00      0.000     0.000    0.0104
   06/26/2005 04:40:00      0.000     0.000    0.0061
   06/26/2005 04:45:00      0.000     0.000    0.0043
   06/26/2005 04:50:00      0.000     0.000    0.0033
   06/26/2005 04:55:00      0.000     0.000    0.0027
   06/26/2005 05:00:00      0.000     0.000    0.0023
   06/26/2005 05:05:00      0.000     0.000    0.0021
   06/26/2005 05:10:00      0.000     0.000    0.0019
   06/26/2005 05:15:00      1.200     0.168    0.0017
   06/26/2005 05:20:00      0.000     0.000    0.0020
   06/26/2005 05:25:00      0.000     0.000    0.0018
   06/26/2005 05:30:00      0.000     0.000    0.0017
   06/26/2005 05:35:00      0.000     0.000    0.0016
   06/26/2005 05:40:00      1.200     0.168    0.0015
   06/26/2005 05:45:00      2.400     0.336    0.0018
   06/26/2005 05:50:00      0.000     0.000    0.0026
   06/26/2005 05:55:00      6.000     0.840    0.0022
   06/26/2005 06:00:00      0.000     0.000    0.0049
   06/26/2005 06:05:00      1.200     0.168    0.0037
   06/26/2005 06:10:00      0.000     0.000    0.0036
   06/26/2005 06:15:00      0.000     0.000    0.0029
   06/26/2005 06:20:00      0.000     0.000    0.0025
   06/26/2005 06:25:00      0.000     0.000    0.0023
   06/26/2005 06:30:00      1.200     0.168    0.0021
   06/26/2005 06:35:00      0.000     0.000    0.0023
   06/26/2005 06:40:00      0.000     0.000    0.0021
   06/26/2005 06:45:00      0.000     0.000    0.0019
   06/26/2005 06:50:00      0.000     0.000    0.0018
   06/26/2005 06:55:00      0.000     0.000    0.0017
   06/26/2005 07:00:00      4.800     0.672    0.0016
   06/26/2005 07:05:00      1.200     0.168    0.0034
   06/26/2005 07:10:00      1.200     0.168    0.0034
   06/26/2005 07:15:00      3.600     0.504    0.0034
   06/26/2005 07:20:00      2.400     0.336    0.0046
   06/26/2005 07:25:00      6.000     0.840    0.0049
   06/26/2005 07:30:00      7.200     1.008    0.0074
   06/26/2005 07:35:00     12.000     1.680    0.0100
   06/26/2005 07:40:00     39.600     5.544    0.0156
   06/26/2005 07:45:00     40.800     5.712    0.0472
   06/26/2005 07:50:00     45.600     6.384    0.0637
   06/26/2005 07:55:00     34.800     4.872    0.0785
   06/26/2005 08:00:00     12.000     1.680    0.0746
   06/26/2005 08:05:00     21.600     3.024    0.0519
   06/26/2005 08:10:00     20.400     2.856    0.0565
   06/26/2005 08:15:00     14.400     2.016    0.0580
   06/26/2005 08:20:00     42.000     5.880    0.0530
   06/26/2005 08:25:00     27.600     3.864    0.0838
   06/26/2005 08:30:00     16.800     2.352    0.0794
   06/26/2005 08:35:00      7.200     1.008    0.0677
   06/26/2005 08:40:00      2.400     0.336    0.0542
   06/26/2005 08:45:00      2.400     0.336    0.0439
   06/26/2005 08:50:00      1.200     0.168    0.0383
   06/26/2005 08:55:00      1.200     0.168    0.0335
   06/26/2005 09:00:00      6.000     0.840    0.0301
   06/26/2005 09:05:00      7.200     1.008    0.0309
   06/26/2005 09:10:00      6.000     0.840    0.0322
   06/26/2005 09:15:00      2.400     0.336    0.0315
   06/26/2005 09:20:00      4.800     0.672    0.0279
   06/26/2005 09:25:00      4.800     0.672    0.0273
   06/26/2005 09:30:00      7.200     1.008    0.0267
   06/26/2005 09:35:00     15.600     2.184    0.0280
   06/26/2005 09:40:00     15.600     2.184    0.0364
   06/26/2005 09:45:00     12.000     1.680    0.0411
   06/26/2005 09:50:00     12.000     1.680    0.0400
   06/26/2005 09:55:00      4.800     0.672    0.0398
   06/26/2005 10:00:00     12.000     1.680    0.0331
   06/26/2005 10:05:00      8.400     1.176    0.0366
   06/26/2005 10:10:00      1.200     0.168    0.0349
   06/26/2005 10:15:00      2.400     0.336    0.0278
   06/26/2005 10:20:00      4.800     0.672    0.0250
   06/26/2005 10:25:00      3.600     0.504    0.0248
   06/26/2005 10:30:00      4.800     0.672    0.0236
   06/26/2005 10:35:00     15.600     2.184    0.0235
   06/26/2005 10:40:00     12.000     1.680    0.0329
   06/26/2005 10:45:00     18.000     2.520    0.0348
   06/26/2005 10:50:00     42.000     5.880    0.0420
   06/26/2005 10:55:00     16.800     2.352    0.0736
   06/26/2005 11:00:00     14.400     2.016    0.0579
   06/26/2005 11:05:00     40.800     5.712    0.0520
   06/26/2005 11:10:00     37.200     5.208    0.0811
   06/26/2005 11:15:00     46.800     6.552    0.0894
   06/26/2005 11:20:00     27.600     3.864    0.1075
   06/26/2005 11:25:00     31.200     4.368    0.0926
   06/26/2005 11:30:00     13.200     1.848    0.0949
   06/26/2005 11:35:00      1.200     0.168    0.0757
   06/26/2005 11:40:00      1.200     0.168    0.0566
   06/26/2005 11:45:00      0.000     0.000    0.0474
   06/26/2005 11:50:00      0.000     0.000    0.0405
   06/26/2005 11:55:00      0.000     0.000    0.0355
   06/26/2005 12:00:00      0.000     0.000    0.0315
   06/26/2005 12:05:00      0.000     0.000    0.0283
   06/26/2005 12:10:00      0.000     0.000    0.0256
   06/26/2005 12:15:00      0.000     0.000    0.0232
   06/26/2005 12:20:00      0.000     0.000    0.0212
   06/26/2005 12:25:00      0.000     0.000    0.0194
   06/26/2005 12:30:00      0.000     0.000    0.0178
   06/26/2005 12:35:00      0.000     0.000    0.0164
   06/26/2005 12:40:00      0.000     0.000    0.0152
   06/26/2005 12:45:00      0.000     0.000    0.0141
   06/26/2005 12:50:00      0.000     0.000    0.0131
   06/26/2005 12:55:00      0.000     0.000    0.0122
   06/26/2005 13:00:00      0.000     0.000    0.0113
   06/26/2005 13:05:00      0.000     0.000    0.0106
   06/26/2005 13:10:00      0.000     0.000    0.0099
   06/26/2005 13:15:00      0.000     0.000    0.0093
   06/26/2005 13:20:00      0.000     0.000    0.0087
   06/26/2005 13:25:00      0.000     0.000    0.0082
   06/26/2005 13:30:00      0.000     0.000    0.0078
   06/26/2005 13:35:00      0.000     0.000    0.0073
   06/26/2005 13:40:00      0.000     0.000    0.0069
   06/26/2005 13:45:00      0.000     0.000    0.0065
   06/26/2005 13:50:00      0.000     0.000    0.0062
   06/26/2005 13:55:00      0.000     0.000    0.0059
   06/26/2005 14:00:00      0.000     0.000    0.0056
   06/26/2005 14:05:00      0.000     0.000    0.0053
   06/26/2005 14:10:00      0.000     0.000    0.0050
   06/26/2005 14:15:00      0.000     0.000    0.0048
   06/26/2005 14:20:00      0.000     0.000    0.0046
   06/26/2005 14:25:00      0.000     0.000    0.0044
   06/26/2005 14:30:00      0.000     0.000    0.0042
   06/26/2005 14:35:00      0.000     0.000    0.0040
   06/26/2005 14:40:00      0.000     0.000    0.0038
   06/26/2005 14:45:00      0.000     0.000    0.0036
   06/26/2005 14:50:00      0.000     0.000    0.0035
   06/26/2005 14:55:00      0.000     0.000    0.0033
   06/26/2005 15:00:00      0.000     0.000    0.0032
   06/26/2005 15:05:00      0.000     0.000    0.0031
   06/26/2005 15:10:00      0.000     0.000    0.0030
   06/26/2005 15:15:00      0.000     0.000    0.0028
   06/26/2005 15:20:00      0.000     0.000    0.0027
   06/26/2005 15:25:00      0.000     0.000    0.0026
   06/26/2005 15:30:00      0.000     0.000    0.0025
   06/26/2005 15:35:00      0.000     0.000    0.0024
   06/26/2005 15:40:00      0.000     0.000    0.0024
   06/26/2005 15:45:00      0.000     0.000    0.0023
   06/26/2005 15:50:00      0.000     0.000    0.0022
   06/26/2005 15:55:00      0.000     0.000    0.0021
  
  
  <<< Subcatchment S4 >>>
  ---------------------------------------------------
  Date        Time        Precip.    Losses    Runoff
                            mm/hr     mm/hr       CMS
  ---------------------------------------------------
   06/26/2005 03:50:00      2.400     0.896    0.0000
   06/26/2005 03:55:00     10.800     3.838    0.0000
   06/26/2005 04:00:00     14.400     4.012    0.0016
   06/26/2005 04:05:00      2.400     0.476    0.0073
   06/26/2005 04:10:00      3.600     0.680    0.0072
   06/26/2005 04:15:00     31.200     5.469    0.0082
   06/26/2005 04:20:00     24.000     3.840    0.0416
   06/26/2005 04:25:00     10.800     1.728    0.0602
   06/26/2005 04:30:00      1.200     0.192    0.0512
   06/26/2005 04:35:00      0.000     0.000    0.0331
   06/26/2005 04:40:00      0.000     0.000    0.0221
   06/26/2005 04:45:00      0.000     0.000    0.0159
   06/26/2005 04:50:00      0.000     0.000    0.0120
   06/26/2005 04:55:00      0.000     0.000    0.0094
   06/26/2005 05:00:00      0.000     0.000    0.0077
   06/26/2005 05:05:00      0.000     0.000    0.0065
   06/26/2005 05:10:00      0.000     0.000    0.0055
   06/26/2005 05:15:00      1.200     0.192    0.0048
   06/26/2005 05:20:00      0.000     0.000    0.0051
   06/26/2005 05:25:00      0.000     0.000    0.0045
   06/26/2005 05:30:00      0.000     0.000    0.0041
   06/26/2005 05:35:00      0.000     0.000    0.0037
   06/26/2005 05:40:00      1.200     0.192    0.0034
   06/26/2005 05:45:00      2.400     0.384    0.0038
   06/26/2005 05:50:00      0.000     0.000    0.0050
   06/26/2005 05:55:00      6.000     0.960    0.0045
   06/26/2005 06:00:00      0.000     0.000    0.0084
   06/26/2005 06:05:00      1.200     0.192    0.0071
   06/26/2005 06:10:00      0.000     0.000    0.0071
   06/26/2005 06:15:00      0.000     0.000    0.0062
   06/26/2005 06:20:00      0.000     0.000    0.0055
   06/26/2005 06:25:00      0.000     0.000    0.0050
   06/26/2005 06:30:00      1.200     0.192    0.0046
   06/26/2005 06:35:00      0.000     0.000    0.0050
   06/26/2005 06:40:00      0.000     0.000    0.0046
   06/26/2005 06:45:00      0.000     0.000    0.0043
   06/26/2005 06:50:00      0.000     0.000    0.0040
   06/26/2005 06:55:00      0.000     0.000    0.0038
   06/26/2005 07:00:00      4.800     0.768    0.0036
   06/26/2005 07:05:00      1.200     0.192    0.0063
   06/26/2005 07:10:00      1.200     0.192    0.0065
   06/26/2005 07:15:00      3.600     0.576    0.0067
   06/26/2005 07:20:00      2.400     0.384    0.0087
   06/26/2005 07:25:00      6.000     0.960    0.0095
   06/26/2005 07:30:00      7.200     1.152    0.0136
   06/26/2005 07:35:00     12.000     1.920    0.0184
   06/26/2005 07:40:00     39.600     6.336    0.0285
   06/26/2005 07:45:00     40.800     6.528    0.0819
   06/26/2005 07:50:00     45.600     7.296    0.1249
   06/26/2005 07:55:00     34.800     5.568    0.1626
   06/26/2005 08:00:00     12.000     1.920    0.1625
   06/26/2005 08:05:00     21.600     3.456    0.1203
   06/26/2005 08:10:00     20.400     3.264    0.1216
   06/26/2005 08:15:00     14.400     2.304    0.1225
   06/26/2005 08:20:00     42.000     6.720    0.1138
   06/26/2005 08:25:00     27.600     4.416    0.1662
   06/26/2005 08:30:00     16.800     2.688    0.1687
   06/26/2005 08:35:00      7.200     1.152    0.1514
   06/26/2005 08:40:00      2.400     0.384    0.1268
   06/26/2005 08:45:00      2.400     0.384    0.1068
   06/26/2005 08:50:00      1.200     0.192    0.0957
   06/26/2005 08:55:00      1.200     0.192    0.0871
   06/26/2005 09:00:00      6.000     0.960    0.0812
   06/26/2005 09:05:00      7.200     1.152    0.0831
   06/26/2005 09:10:00      6.000     0.960    0.0862
   06/26/2005 09:15:00      2.400     0.384    0.0868
   06/26/2005 09:20:00      4.800     0.768    0.0822
   06/26/2005 09:25:00      4.800     0.768    0.0820
   06/26/2005 09:30:00      7.200     1.152    0.0817
   06/26/2005 09:35:00     15.600     2.496    0.0848
   06/26/2005 09:40:00     15.600     2.496    0.1000
   06/26/2005 09:45:00     12.000     1.920    0.1119
   06/26/2005 09:50:00     12.000     1.920    0.1144
   06/26/2005 09:55:00      4.800     0.768    0.1165
   06/26/2005 10:00:00     12.000     1.920    0.1064
   06/26/2005 10:05:00      8.400     1.344    0.1119
   06/26/2005 10:10:00      1.200     0.192    0.1100
   06/26/2005 10:15:00      2.400     0.384    0.0978
   06/26/2005 10:20:00      4.800     0.768    0.0917
   06/26/2005 10:25:00      3.600     0.576    0.0906
   06/26/2005 10:30:00      4.800     0.768    0.0880
   06/26/2005 10:35:00     15.600     2.496    0.0876
   06/26/2005 10:40:00     12.000     1.920    0.1033
   06/26/2005 10:45:00     18.000     2.880    0.1098
   06/26/2005 10:50:00     42.000     6.720    0.1250
   06/26/2005 10:55:00     16.800     2.688    0.1847
   06/26/2005 11:00:00     14.400     2.304    0.1707
   06/26/2005 11:05:00     40.800     6.528    0.1609
   06/26/2005 11:10:00     37.200     5.952    0.2119
   06/26/2005 11:15:00     46.800     7.488    0.2370
   06/26/2005 11:20:00     27.600     4.416    0.2775
   06/26/2005 11:25:00     31.200     4.992    0.2582
   06/26/2005 11:30:00     13.200     2.112    0.2619
   06/26/2005 11:35:00      1.200     0.192    0.2281
   06/26/2005 11:40:00      1.200     0.192    0.1895
   06/26/2005 11:45:00      0.000     0.000    0.1686
   06/26/2005 11:50:00      0.000     0.000    0.1534
   06/26/2005 11:55:00      0.000     0.000    0.1425
   06/26/2005 12:00:00      0.000     0.000    0.1340
   06/26/2005 12:05:00      0.000     0.000    0.1270
   06/26/2005 12:10:00      0.000     0.000    0.1210
   06/26/2005 12:15:00      0.000     0.000    0.1156
   06/26/2005 12:20:00      0.000     0.000    0.1108
   06/26/2005 12:25:00      0.000     0.000    0.1063
   06/26/2005 12:30:00      0.000     0.000    0.1022
   06/26/2005 12:35:00      0.000     0.000    0.0984
   06/26/2005 12:40:00      0.000     0.000    0.0948
   06/26/2005 12:45:00      0.000     0.000    0.0915
   06/26/2005 12:50:00      0.000     0.000    0.0883
   06/26/2005 12:55:00      0.000     0.000    0.0853
   06/26/2005 13:00:00      0.000     0.000    0.0824
   06/26/2005 13:05:00      0.000     0.000    0.0797
   06/26/2005 13:10:00      0.000     0.000    0.0771
   06/26/2005 13:15:00      0.000     0.000    0.0747
   06/26/2005 13:20:00      0.000     0.000    0.0723
   06/26/2005 13:25:00      0.000     0.000    0.0701
   06/26/2005 13:30:00      0.000     0.000    0.0680
   06/26/2005 13:35:00      0.000     0.000    0.0659
   06/26/2005 13:40:00      0.000     0.000    0.0640
   06/26/2005 13:45:00      0.000     0.000    0.0621
   06/26/2005 13:50:00      0.000     0.000    0.0603
   06/26/2005 13:55:00      0.000     0.000    0.0586
   06/26/2005 14:00:00      0.000     0.000    0.0569
   06/26/2005 14:05:00      0.000     0.000    0.0553
   06/26/2005 14:10:00      0.000     0.000    0.0538
   06/26/2005 14:15:00      0.000     0.000    0.0524
   06/26/2005 14:20:00      0.000     0.000    0.0509
   06/26/2005 14:25:00      0.000     0.000    0.0496
   06/26/2005 14:30:00      0.000     0.000    0.0483
   06/26/2005 14:35:00      0.000     0.000    0.0470
   06/26/2005 14:40:00      0.000     0.000    0.0458
   06/26/2005 14:45:00      0.000     0.000    0.0446
   06/26/2005 14:50:00      0.000     0.000    0.0435
   06/26/2005 14:55:00      0.000     0.000    0.0424
   06/26/2005 15:00:00      0.000     0.000    0.0414
   06/26/2005 15:05:00      0.000     0.000    0.0404
   06/26/2005 15:10:00      0.000     0.000    0.0394
   06/26/2005 15:15:00      0.000     0.000    0.0384
   06/26/2005 15:20:00      0.000     0.000    0.0375
   06/26/2005 15:25:00      0.000     0.000    0.0366
   06/26/2005 15:30:00      0.000     0.000    0.0358
   06/26/2005 15:35:00      0.000     0.000    0.0350
   06/26/2005 15:40:00      0.000     0.000    0.0342
   06/26/2005 15:45:00      0.000     0.000    0.0334
   06/26/2005 15:50:00      0.000     0.000    0.0326
   06/26/2005 15:55:00      0.000     0.000    0.0319
  
  
  <<< Subcatchment S5 >>>
  ---------------------------------------------------
  Date        Time        Precip.    Losses    Runoff
                            mm/hr     mm/hr       CMS
  ---------------------------------------------------
   06/26/2005 03:50:00      2.400     0.896    0.0000
   06/26/2005 03:55:00     10.800     3.838    0.0000
   06/26/2005 04:00:00     14.400     4.012    0.0016
   06/26/2005 04:05:00      2.400     0.476    0.0078
   06/26/2005 04:10:00      3.600     0.680    0.0082
   06/26/2005 04:15:00     31.200     5.469    0.0098
   06/26/2005 04:20:00     24.000     3.840    0.0476
   06/26/2005 04:25:00     10.800     1.728    0.0739
   06/26/2005 04:30:00      1.200     0.192    0.0686
   06/26/2005 04:35:00      0.000     0.000    0.0489
   06/26/2005 04:40:00      0.000     0.000    0.0352
   06/26/2005 04:45:00      0.000     0.000    0.0265
   06/26/2005 04:50:00      0.000     0.000    0.0206
   06/26/2005 04:55:00      0.000     0.000    0.0166
   06/26/2005 05:00:00      0.000     0.000    0.0136
   06/26/2005 05:05:00      0.000     0.000    0.0114
   06/26/2005 05:10:00      0.000     0.000    0.0097
   06/26/2005 05:15:00      1.200     0.192    0.0085
   06/26/2005 05:20:00      0.000     0.000    0.0085
   06/26/2005 05:25:00      0.000     0.000    0.0074
   06/26/2005 05:30:00      0.000     0.000    0.0066
   06/26/2005 05:35:00      0.000     0.000    0.0060
   06/26/2005 05:40:00      1.200     0.192    0.0054
   06/26/2005 05:45:00      2.400     0.384    0.0058
   06/26/2005 05:50:00      0.000     0.000    0.0071
   06/26/2005 05:55:00      6.000     0.960    0.0064
   06/26/2005 06:00:00      0.000     0.000    0.0110
   06/26/2005 06:05:00      1.200     0.192    0.0096
   06/26/2005 06:10:00      0.000     0.000    0.0095
   06/26/2005 06:15:00      0.000     0.000    0.0085
   06/26/2005 06:20:00      0.000     0.000    0.0076
   06/26/2005 06:25:00      0.000     0.000    0.0069
   06/26/2005 06:30:00      1.200     0.192    0.0063
   06/26/2005 06:35:00      0.000     0.000    0.0067
   06/26/2005 06:40:00      0.000     0.000    0.0062
   06/26/2005 06:45:00      0.000     0.000    0.0058
   06/26/2005 06:50:00      0.000     0.000    0.0054
   06/26/2005 06:55:00      0.000     0.000    0.0051
   06/26/2005 07:00:00      4.800     0.768    0.0048
   06/26/2005 07:05:00      1.200     0.192    0.0080
   06/26/2005 07:10:00      1.200     0.192    0.0082
   06/26/2005 07:15:00      3.600     0.576    0.0085
   06/26/2005 07:20:00      2.400     0.384    0.0108
   06/26/2005 07:25:00      6.000     0.960    0.0119
   06/26/2005 07:30:00      7.200     1.152    0.0166
   06/26/2005 07:35:00     12.000     1.920    0.0226
   06/26/2005 07:40:00     39.600     6.336    0.0347
   06/26/2005 07:45:00     40.800     6.528    0.0975
   06/26/2005 07:50:00     45.600     7.296    0.1557
   06/26/2005 07:55:00     34.800     5.568    0.2103
   06/26/2005 08:00:00     12.000     1.920    0.2180
   06/26/2005 08:05:00     21.600     3.456    0.1682
   06/26/2005 08:10:00     20.400     3.264    0.1667
   06/26/2005 08:15:00     14.400     2.304    0.1653
   06/26/2005 08:20:00     42.000     6.720    0.1526
   06/26/2005 08:25:00     27.600     4.416    0.2142
   06/26/2005 08:30:00     16.800     2.688    0.2197
   06/26/2005 08:35:00      7.200     1.152    0.1989
   06/26/2005 08:40:00      2.400     0.384    0.1669
   06/26/2005 08:45:00      2.400     0.384    0.1394
   06/26/2005 08:50:00      1.200     0.192    0.1231
   06/26/2005 08:55:00      1.200     0.192    0.1106
   06/26/2005 09:00:00      6.000     0.960    0.1020
   06/26/2005 09:05:00      7.200     1.152    0.1036
   06/26/2005 09:10:00      6.000     0.960    0.1069
   06/26/2005 09:15:00      2.400     0.384    0.1076
   06/26/2005 09:20:00      4.800     0.768    0.1021
   06/26/2005 09:25:00      4.800     0.768    0.1019
   06/26/2005 09:30:00      7.200     1.152    0.1018
   06/26/2005 09:35:00     15.600     2.496    0.1057
   06/26/2005 09:40:00     15.600     2.496    0.1241
   06/26/2005 09:45:00     12.000     1.920    0.1396
   06/26/2005 09:50:00     12.000     1.920    0.1445
   06/26/2005 09:55:00      4.800     0.768    0.1485
   06/26/2005 10:00:00     12.000     1.920    0.1375
   06/26/2005 10:05:00      8.400     1.344    0.1443
   06/26/2005 10:10:00      1.200     0.192    0.1426
   06/26/2005 10:15:00      2.400     0.384    0.1281
   06/26/2005 10:20:00      4.800     0.768    0.1203
   06/26/2005 10:25:00      3.600     0.576    0.1187
   06/26/2005 10:30:00      4.800     0.768    0.1154
   06/26/2005 10:35:00     15.600     2.496    0.1149
   06/26/2005 10:40:00     12.000     1.920    0.1336
   06/26/2005 10:45:00     18.000     2.880    0.1424
   06/26/2005 10:50:00     42.000     6.720    0.1618
   06/26/2005 10:55:00     16.800     2.688    0.2349
   06/26/2005 11:00:00     14.400     2.304    0.2251
   06/26/2005 11:05:00     40.800     6.528    0.2153
   06/26/2005 11:10:00     37.200     5.952    0.2775
   06/26/2005 11:15:00     46.800     7.488    0.3124
   06/26/2005 11:20:00     27.600     4.416    0.3659
   06/26/2005 11:25:00     31.200     4.992    0.3468
   06/26/2005 11:30:00     13.200     2.112    0.3512
   06/26/2005 11:35:00      1.200     0.192    0.3088
   06/26/2005 11:40:00      1.200     0.192    0.2581
   06/26/2005 11:45:00      0.000     0.000    0.2288
   06/26/2005 11:50:00      0.000     0.000    0.2076
   06/26/2005 11:55:00      0.000     0.000    0.1926
   06/26/2005 12:00:00      0.000     0.000    0.1813
   06/26/2005 12:05:00      0.000     0.000    0.1722
   06/26/2005 12:10:00      0.000     0.000    0.1646
   06/26/2005 12:15:00      0.000     0.000    0.1581
   06/26/2005 12:20:00      0.000     0.000    0.1523
   06/26/2005 12:25:00      0.000     0.000    0.1470
   06/26/2005 12:30:00      0.000     0.000    0.1422
   06/26/2005 12:35:00      0.000     0.000    0.1378
   06/26/2005 12:40:00      0.000     0.000    0.1336
   06/26/2005 12:45:00      0.000     0.000    0.1298
   06/26/2005 12:50:00      0.000     0.000    0.1261
   06/26/2005 12:55:00      0.000     0.000    0.1226
   06/26/2005 13:00:00      0.000     0.000    0.1193
   06/26/2005 13:05:00      0.000     0.000    0.1161
   06/26/2005 13:10:00      0.000     0.000    0.1131
   06/26/2005 13:15:00      0.000     0.000    0.1102
   06/26/2005 13:20:00      0.000     0.000    0.1075
   06/26/2005 13:25:00      0.000     0.000    0.1048
   06/26/2005 13:30:00      0.000     0.000    0.1022
   06/26/2005 13:35:00      0.000     0.000    0.0998
   06/26/2005 13:40:00      0.000     0.000    0.0974
   06/26/2005 13:45:00      0.000     0.000    0.0951
   06/26/2005 13:50:00      0.000     0.000    0.0929
   06/26/2005 13:55:00      0.000     0.000    0.0908
   06/26/2005 14:00:00      0.000     0.000    0.0887
   06/26/2005 14:05:00      0.000     0.000    0.0867
   06/26/2005 14:10:00      0.000     0.000    0.0848
   06/26/2005 14:15:00      0.000     0.000    0.0829
   06/26/2005 14:20:00      0.000     0.000    0.0811
   06/26/2005 14:25:00      0.000     0.000    0.0793
   06/26/2005 14:30:00      0.000     0.000    0.0776
   06/26/2005 14:35:00      0.000     0.000    0.0760
   06/26/2005 14:40:00      0.000     0.000    0.0744
   06/26/2005 14:45:00      0.000     0.000    0.0729
   06/26/2005 14:50:00      0.000     0.000    0.0713
   06/26/2005 14:55:00      0.000     0.000    0.0699
   06/26/2005 15:00:00      0.000     0.000    0.0685
   06/26/2005 15:05:00      0.000     0.000    0.0671
   06/26/2005 15:10:00      0.000     0.000    0.0658
   06/26/2005 15:15:00      0.000     0.000    0.0645
   06/26/2005 15:20:00      0.000     0.000    0.0632
   06/26/2005 15:25:00      0.000     0.000    0.0620
   06/26/2005 15:30:00      0.000     0.000    0.0608
   06/26/2005 15:35:00      0.000     0.000    0.0596
   06/26/2005 15:40:00      0.000     0.000    0.0585
   06/26/2005 15:45:00      0.000     0.000    0.0574
   06/26/2005 15:50:00      0.000     0.000    0.0563
   06/26/2005 15:55:00      0.000     0.000    0.0553
  
  
  <<< Subcatchment S6 >>>
  ---------------------------------------------------
  Date        Time        Precip.    Losses    Runoff
                            mm/hr     mm/hr       CMS
  ---------------------------------------------------
   06/26/2005 03:50:00      2.400     0.448    0.0000
   06/26/2005 03:55:00     10.800     1.919    0.0000
   06/26/2005 04:00:00     14.400     2.006    0.0017
   06/26/2005 04:05:00      2.400     0.238    0.0084
   06/26/2005 04:10:00      3.600     0.340    0.0097
   06/26/2005 04:15:00     31.200     2.734    0.0122
   06/26/2005 04:20:00     24.000     1.920    0.0569
   06/26/2005 04:25:00     10.800     0.864    0.0975
   06/26/2005 04:30:00      1.200     0.096    0.1039
   06/26/2005 04:35:00      0.000     0.000    0.0869
   06/26/2005 04:40:00      0.000     0.000    0.0715
   06/26/2005 04:45:00      0.000     0.000    0.0598
   06/26/2005 04:50:00      0.000     0.000    0.0506
   06/26/2005 04:55:00      0.000     0.000    0.0433
   06/26/2005 05:00:00      0.000     0.000    0.0375
   06/26/2005 05:05:00      0.000     0.000    0.0327
   06/26/2005 05:10:00      0.000     0.000    0.0288
   06/26/2005 05:15:00      1.200     0.096    0.0255
   06/26/2005 05:20:00      0.000     0.000    0.0244
   06/26/2005 05:25:00      0.000     0.000    0.0219
   06/26/2005 05:30:00      0.000     0.000    0.0197
   06/26/2005 05:35:00      0.000     0.000    0.0178
   06/26/2005 05:40:00      1.200     0.096    0.0162
   06/26/2005 05:45:00      2.400     0.192    0.0162
   06/26/2005 05:50:00      0.000     0.000    0.0177
   06/26/2005 05:55:00      6.000     0.480    0.0161
   06/26/2005 06:00:00      0.000     0.000    0.0223
   06/26/2005 06:05:00      1.200     0.096    0.0201
   06/26/2005 06:10:00      0.000     0.000    0.0198
   06/26/2005 06:15:00      0.000     0.000    0.0180
   06/26/2005 06:20:00      0.000     0.000    0.0164
   06/26/2005 06:25:00      0.000     0.000    0.0150
   06/26/2005 06:30:00      1.200     0.096    0.0138
   06/26/2005 06:35:00      0.000     0.000    0.0141
   06/26/2005 06:40:00      0.000     0.000    0.0130
   06/26/2005 06:45:00      0.000     0.000    0.0121
   06/26/2005 06:50:00      0.000     0.000    0.0112
   06/26/2005 06:55:00      0.000     0.000    0.0105
   06/26/2005 07:00:00      4.800     0.384    0.0098
   06/26/2005 07:05:00      1.200     0.096    0.0142
   06/26/2005 07:10:00      1.200     0.096    0.0145
   06/26/2005 07:15:00      3.600     0.288    0.0147
   06/26/2005 07:20:00      2.400     0.192    0.0178
   06/26/2005 07:25:00      6.000     0.480    0.0193
   06/26/2005 07:30:00      7.200     0.576    0.0256
   06/26/2005 07:35:00     12.000     0.960    0.0337
   06/26/2005 07:40:00     39.600     3.168    0.0501
   06/26/2005 07:45:00     40.800     3.264    0.1313
   06/26/2005 07:50:00     45.600     3.648    0.2211
   06/26/2005 07:55:00     34.800     2.784    0.3190
   06/26/2005 08:00:00     12.000     0.960    0.3592
   06/26/2005 08:05:00     21.600     1.728    0.3074
   06/26/2005 08:10:00     20.400     1.632    0.3058
   06/26/2005 08:15:00     14.400     1.152    0.3017
   06/26/2005 08:20:00     42.000     3.360    0.2792
   06/26/2005 08:25:00     27.600     2.208    0.3605
   06/26/2005 08:30:00     16.800     1.344    0.3710
   06/26/2005 08:35:00      7.200     0.576    0.3404
   06/26/2005 08:40:00      2.400     0.192    0.2870
   06/26/2005 08:45:00      2.400     0.192    0.2352
   06/26/2005 08:50:00      1.200     0.096    0.1989
   06/26/2005 08:55:00      1.200     0.096    0.1691
   06/26/2005 09:00:00      6.000     0.480    0.1469
   06/26/2005 09:05:00      7.200     0.576    0.1416
   06/26/2005 09:10:00      6.000     0.480    0.1402
   06/26/2005 09:15:00      2.400     0.192    0.1361
   06/26/2005 09:20:00      4.800     0.384    0.1240
   06/26/2005 09:25:00      4.800     0.384    0.1199
   06/26/2005 09:30:00      7.200     0.576    0.1163
   06/26/2005 09:35:00     15.600     1.248    0.1189
   06/26/2005 09:40:00     15.600     1.248    0.1414
   06/26/2005 09:45:00     12.000     0.960    0.1614
   06/26/2005 09:50:00     12.000     0.960    0.1687
   06/26/2005 09:55:00      4.800     0.384    0.1748
   06/26/2005 10:00:00     12.000     0.960    0.1603
   06/26/2005 10:05:00      8.400     0.672    0.1679
   06/26/2005 10:10:00      1.200     0.096    0.1645
   06/26/2005 10:15:00      2.400     0.192    0.1432
   06/26/2005 10:20:00      4.800     0.384    0.1296
   06/26/2005 10:25:00      3.600     0.288    0.1244
   06/26/2005 10:30:00      4.800     0.384    0.1173
   06/26/2005 10:35:00     15.600     1.248    0.1142
   06/26/2005 10:40:00     12.000     0.960    0.1371
   06/26/2005 10:45:00     18.000     1.440    0.1482
   06/26/2005 10:50:00     42.000     3.360    0.1739
   06/26/2005 10:55:00     16.800     1.344    0.2706
   06/26/2005 11:00:00     14.400     1.152    0.2698
   06/26/2005 11:05:00     40.800     3.264    0.2618
   06/26/2005 11:10:00     37.200     2.976    0.3461
   06/26/2005 11:15:00     46.800     3.744    0.4017
   06/26/2005 11:20:00     27.600     2.208    0.4835
   06/26/2005 11:25:00     31.200     2.496    0.4677
   06/26/2005 11:30:00     13.200     1.056    0.4726
   06/26/2005 11:35:00      1.200     0.096    0.4078
   06/26/2005 11:40:00      1.200     0.096    0.3225
   06/26/2005 11:45:00      0.000     0.000    0.2649
   06/26/2005 11:50:00      0.000     0.000    0.2205
   06/26/2005 11:55:00      0.000     0.000    0.1879
   06/26/2005 12:00:00      0.000     0.000    0.1631
   06/26/2005 12:05:00      0.000     0.000    0.1437
   06/26/2005 12:10:00      0.000     0.000    0.1282
   06/26/2005 12:15:00      0.000     0.000    0.1155
   06/26/2005 12:20:00      0.000     0.000    0.1049
   06/26/2005 12:25:00      0.000     0.000    0.0959
   06/26/2005 12:30:00      0.000     0.000    0.0883
   06/26/2005 12:35:00      0.000     0.000    0.0816
   06/26/2005 12:40:00      0.000     0.000    0.0758
   06/26/2005 12:45:00      0.000     0.000    0.0707
   06/26/2005 12:50:00      0.000     0.000    0.0661
   06/26/2005 12:55:00      0.000     0.000    0.0620
   06/26/2005 13:00:00      0.000     0.000    0.0583
   06/26/2005 13:05:00      0.000     0.000    0.0550
   06/26/2005 13:10:00      0.000     0.000    0.0520
   06/26/2005 13:15:00      0.000     0.000    0.0492
   06/26/2005 13:20:00      0.000     0.000    0.0467
   06/26/2005 13:25:00      0.000     0.000    0.0443
   06/26/2005 13:30:00      0.000     0.000    0.0422
   06/26/2005 13:35:00      0.000     0.000    0.0402
   06/26/2005 13:40:00      0.000     0.000    0.0383
   06/26/2005 13:45:00      0.000     0.000    0.0366
   06/26/2005 13:50:00      0.000     0.000    0.0350
   06/26/2005 13:55:00      0.000     0.000    0.0335
   06/26/2005 14:00:00      0.000     0.000    0.0321
   06/26/2005 14:05:00      0.000     0.000    0.0308
   06/26/2005 14:10:00      0.000     0.000    0.0295
   06/26/2005 14:15:00      0.000     0.000    0.0284
   06/26/2005 14:20:00      0.000     0.000    0.0273
   06/26/2005 14:25:00      0.000     0.000    0.0262
   06/26/2005 14:30:00      0.000     0.000    0.0253
   06/26/2005 14:35:00      0.000     0.000    0.0243
   06/26/2005 14:40:00      0.000     0.000    0.0235
   06/26/2005 14:45:00      0.000     0.000    0.0226
   06/26/2005 14:50:00      0.000     0.000    0.0218
   06/26/2005 14:55:00      0.000     0.000    0.0211
   06/26/2005 15:00:00      0.000     0.000    0.0204
   06/26/2005 15:05:00      0.000     0.000    0.0197
   06/26/2005 15:10:00      0.000     0.000    0.0191
   06/26/2005 15:15:00      0.000     0.000    0.0184
   06/26/2005 15:20:00      0.000     0.000    0.0179
   06/26/2005 15:25:00      0.000     0.000    0.0173
   06/26/2005 15:30:00      0.000     0.000    0.0168
   06/26/2005 15:35:00      0.000     0.000    0.0163
   06/26/2005 15:40:00      0.000     0.000    0.0158
   06/26/2005 15:45:00      0.000     0.000    0.0153
   06/26/2005 15:50:00      0.000     0.000    0.0149
   06/26/2005 15:55:00      0.000     0.000    0.0144
  
  
  <<< Subcatchment S7 >>>
  ---------------------------------------------------
  Date        Time        Precip.    Losses    Runoff
                            mm/hr     mm/hr       CMS
  ---------------------------------------------------
   06/26/2005 03:50:00      2.400     0.672    0.0000
   06/26/2005 03:55:00     10.800     2.879    0.0000
   06/26/2005 04:00:00     14.400     3.009    0.0016
   06/26/2005 04:05:00      2.400     0.357    0.0074
   06/26/2005 04:10:00      3.600     0.510    0.0074
   06/26/2005 04:15:00     31.200     4.101    0.0085
   06/26/2005 04:20:00     24.000     2.880    0.0425
   06/26/2005 04:25:00     10.800     1.296    0.0623
   06/26/2005 04:30:00      1.200     0.144    0.0536
   06/26/2005 04:35:00      0.000     0.000    0.0351
   06/26/2005 04:40:00      0.000     0.000    0.0237
   06/26/2005 04:45:00      0.000     0.000    0.0171
   06/26/2005 04:50:00      0.000     0.000    0.0129
   06/26/2005 04:55:00      0.000     0.000    0.0102
   06/26/2005 05:00:00      0.000     0.000    0.0083
   06/26/2005 05:05:00      0.000     0.000    0.0069
   06/26/2005 05:10:00      0.000     0.000    0.0059
   06/26/2005 05:15:00      1.200     0.144    0.0051
   06/26/2005 05:20:00      0.000     0.000    0.0053
   06/26/2005 05:25:00      0.000     0.000    0.0046
   06/26/2005 05:30:00      0.000     0.000    0.0041
   06/26/2005 05:35:00      0.000     0.000    0.0037
   06/26/2005 05:40:00      1.200     0.144    0.0034
   06/26/2005 05:45:00      2.400     0.288    0.0038
   06/26/2005 05:50:00      0.000     0.000    0.0049
   06/26/2005 05:55:00      6.000     0.720    0.0044
   06/26/2005 06:00:00      0.000     0.000    0.0083
   06/26/2005 06:05:00      1.200     0.144    0.0071
   06/26/2005 06:10:00      0.000     0.000    0.0070
   06/26/2005 06:15:00      0.000     0.000    0.0061
   06/26/2005 06:20:00      0.000     0.000    0.0054
   06/26/2005 06:25:00      0.000     0.000    0.0048
   06/26/2005 06:30:00      1.200     0.144    0.0043
   06/26/2005 06:35:00      0.000     0.000    0.0047
   06/26/2005 06:40:00      0.000     0.000    0.0043
   06/26/2005 06:45:00      0.000     0.000    0.0039
   06/26/2005 06:50:00      0.000     0.000    0.0036
   06/26/2005 06:55:00      0.000     0.000    0.0034
   06/26/2005 07:00:00      4.800     0.576    0.0032
   06/26/2005 07:05:00      1.200     0.144    0.0059
   06/26/2005 07:10:00      1.200     0.144    0.0061
   06/26/2005 07:15:00      3.600     0.432    0.0062
   06/26/2005 07:20:00      2.400     0.288    0.0082
   06/26/2005 07:25:00      6.000     0.720    0.0090
   06/26/2005 07:30:00      7.200     0.864    0.0131
   06/26/2005 07:35:00     12.000     1.440    0.0180
   06/26/2005 07:40:00     39.600     4.752    0.0282
   06/26/2005 07:45:00     40.800     4.896    0.0824
   06/26/2005 07:50:00     45.600     5.472    0.1269
   06/26/2005 07:55:00     34.800     4.176    0.1657
   06/26/2005 08:00:00     12.000     1.440    0.1650
   06/26/2005 08:05:00     21.600     2.592    0.1204
   06/26/2005 08:10:00     20.400     2.448    0.1198
   06/26/2005 08:15:00     14.400     1.728    0.1187
   06/26/2005 08:20:00     42.000     5.040    0.1080
   06/26/2005 08:25:00     27.600     3.312    0.1591
   06/26/2005 08:30:00     16.800     2.016    0.1595
   06/26/2005 08:35:00      7.200     0.864    0.1393
   06/26/2005 08:40:00      2.400     0.288    0.1118
   06/26/2005 08:45:00      2.400     0.288    0.0893
   06/26/2005 08:50:00      1.200     0.144    0.0762
   06/26/2005 08:55:00      1.200     0.144    0.0659
   06/26/2005 09:00:00      6.000     0.720    0.0588
   06/26/2005 09:05:00      7.200     0.864    0.0597
   06/26/2005 09:10:00      6.000     0.720    0.0617
   06/26/2005 09:15:00      2.400     0.288    0.0614
   06/26/2005 09:20:00      4.800     0.576    0.0560
   06/26/2005 09:25:00      4.800     0.576    0.0551
   06/26/2005 09:30:00      7.200     0.864    0.0542
   06/26/2005 09:35:00     15.600     1.872    0.0566
   06/26/2005 09:40:00     15.600     1.872    0.0709
   06/26/2005 09:45:00     12.000     1.440    0.0819
   06/26/2005 09:50:00     12.000     1.440    0.0835
   06/26/2005 09:55:00      4.800     0.576    0.0847
   06/26/2005 10:00:00     12.000     1.440    0.0738
   06/26/2005 10:05:00      8.400     1.008    0.0784
[...]
   06/26/2005 15:15:00      0.516     1.545     0.263     0.033
   06/26/2005 15:20:00      0.503     1.533     0.259     0.032
   06/26/2005 15:25:00      0.491     1.521     0.256     0.032
   06/26/2005 15:30:00      0.479     1.510     0.253     0.031
   06/26/2005 15:35:00      0.467     1.498     0.250     0.031
   06/26/2005 15:40:00      0.456     1.487     0.248     0.030
   06/26/2005 15:45:00      0.445     1.477     0.245     0.030
   06/26/2005 15:50:00      0.435     1.466     0.242     0.029
   06/26/2005 15:55:00      0.425     1.456     0.239     0.029
  
  
  <<< Link C24 >>>
  ----------------------------------------------------------------
                             Flow  Velocity     Depth  Capacity/
  Date        Time            CMS     m/sec    meters   Setting 
  ----------------------------------------------------------------
   06/26/2005 03:50:00      0.000     0.000     0.000     0.000
   06/26/2005 03:55:00      0.000     0.000     0.002     0.000
   06/26/2005 04:00:00      0.001     0.392     0.010     0.002
   06/26/2005 04:05:00      0.004     0.691     0.028     0.007
   06/26/2005 04:10:00      0.009     0.732     0.044     0.013
   06/26/2005 04:15:00      0.011     0.705     0.051     0.017
   06/26/2005 04:20:00      0.041     1.140     0.089     0.038
   06/26/2005 04:25:00      0.088     1.332     0.134     0.070
   06/26/2005 04:30:00      0.106     1.365     0.149     0.081
   06/26/2005 04:35:00      0.096     1.328     0.142     0.076
   06/26/2005 04:40:00      0.081     1.279     0.130     0.066
   06/26/2005 04:45:00      0.068     1.232     0.118     0.058
   06/26/2005 04:50:00      0.058     1.191     0.109     0.051
   06/26/2005 04:55:00      0.050     1.146     0.101     0.046
   06/26/2005 05:00:00      0.044     1.106     0.094     0.041
   06/26/2005 05:05:00      0.038     1.070     0.088     0.038
   06/26/2005 05:10:00      0.034     1.031     0.083     0.035
   06/26/2005 05:15:00      0.030     0.993     0.079     0.032
   06/26/2005 05:20:00      0.028     0.976     0.076     0.030
   06/26/2005 05:25:00      0.026     0.951     0.073     0.029
   06/26/2005 05:30:00      0.023     0.918     0.070     0.027
   06/26/2005 05:35:00      0.021     0.893     0.067     0.025
   06/26/2005 05:40:00      0.019     0.868     0.064     0.023
   06/26/2005 05:45:00      0.019     0.862     0.062     0.023
   06/26/2005 05:50:00      0.019     0.884     0.063     0.023
   06/26/2005 05:55:00      0.019     0.869     0.063     0.023
   06/26/2005 06:00:00      0.022     0.923     0.067     0.025
   06/26/2005 06:05:00      0.024     0.916     0.071     0.027
   06/26/2005 06:10:00      0.022     0.883     0.070     0.027
   06/26/2005 06:15:00      0.021     0.861     0.068     0.026
   06/26/2005 06:20:00      0.019     0.837     0.066     0.024
   06/26/2005 06:25:00      0.018     0.815     0.063     0.023
   06/26/2005 06:30:00      0.016     0.795     0.060     0.022
   06/26/2005 06:35:00      0.016     0.797     0.059     0.021
   06/26/2005 06:40:00      0.015     0.788     0.058     0.021
   06/26/2005 06:45:00      0.014     0.768     0.057     0.020
   06/26/2005 06:50:00      0.013     0.751     0.055     0.019
   06/26/2005 06:55:00      0.013     0.737     0.053     0.018
   06/26/2005 07:00:00      0.012     0.725     0.051     0.017
   06/26/2005 07:05:00      0.014     0.786     0.055     0.019
   06/26/2005 07:10:00      0.016     0.820     0.059     0.021
   06/26/2005 07:15:00      0.017     0.806     0.060     0.022
   06/26/2005 07:20:00      0.019     0.839     0.064     0.023
   06/26/2005 07:25:00      0.021     0.865     0.068     0.025
   06/26/2005 07:30:00      0.026     0.919     0.074     0.029
   06/26/2005 07:35:00      0.034     1.004     0.084     0.035
   06/26/2005 07:40:00      0.048     1.120     0.100     0.045
   06/26/2005 07:45:00      0.114     1.490     0.148     0.081
   06/26/2005 07:50:00      0.210     1.730     0.204     0.128
   06/26/2005 07:55:00      0.314     1.949     0.249     0.170
   06/26/2005 08:00:00      0.373     2.055     0.271     0.191
   06/26/2005 08:05:00      0.343     2.008     0.259     0.180
   06/26/2005 08:10:00      0.334     2.024     0.253     0.174
   06/26/2005 08:15:00      0.332     2.023     0.252     0.173
   06/26/2005 08:20:00      0.315     1.984     0.246     0.167
   06/26/2005 08:25:00      0.381     2.118     0.268     0.189
   06/26/2005 08:30:00      0.409     2.132     0.281     0.202
   06/26/2005 08:35:00      0.387     2.094     0.274     0.195
   06/26/2005 08:40:00      0.339     2.011     0.256     0.177
   06/26/2005 08:45:00      0.285     1.911     0.236     0.157
   06/26/2005 08:50:00      0.245     1.825     0.219     0.141
   06/26/2005 08:55:00      0.212     1.741     0.205     0.128
   06/26/2005 09:00:00      0.188     1.672     0.193     0.118
   06/26/2005 09:05:00      0.178     1.648     0.188     0.114
   06/26/2005 09:10:00      0.176     1.639     0.187     0.113
   06/26/2005 09:15:00      0.173     1.622     0.186     0.112
   06/26/2005 09:20:00      0.163     1.583     0.181     0.108
   06/26/2005 09:25:00      0.157     1.568     0.178     0.105
   06/26/2005 09:30:00      0.153     1.557     0.176     0.104
   06/26/2005 09:35:00      0.155     1.563     0.177     0.104
   06/26/2005 09:40:00      0.174     1.628     0.187     0.113
   06/26/2005 09:45:00      0.197     1.683     0.199     0.123
   06/26/2005 09:50:00      0.210     1.705     0.206     0.129
   06/26/2005 09:55:00      0.218     1.728     0.209     0.132
   06/26/2005 10:00:00      0.208     1.701     0.205     0.129
   06/26/2005 10:05:00      0.212     1.724     0.206     0.130
   06/26/2005 10:10:00      0.213     1.722     0.206     0.130
   06/26/2005 10:15:00      0.195     1.672     0.199     0.123
   06/26/2005 10:20:00      0.180     1.635     0.190     0.116
   06/26/2005 10:25:00      0.173     1.621     0.186     0.112
   06/26/2005 10:30:00      0.166     1.600     0.183     0.109
   06/26/2005 10:35:00      0.162     1.589     0.181     0.107
   06/26/2005 10:40:00      0.180     1.653     0.189     0.115
   06/26/2005 10:45:00      0.196     1.685     0.198     0.123
   06/26/2005 10:50:00      0.221     1.747     0.210     0.133
   06/26/2005 10:55:00      0.310     1.953     0.246     0.167
   06/26/2005 11:00:00      0.334     1.966     0.258     0.178
   06/26/2005 11:05:00      0.330     1.973     0.255     0.176
   06/26/2005 11:10:00      0.403     2.123     0.279     0.200
   06/26/2005 11:15:00      0.472     2.216     0.303     0.224
   06/26/2005 11:20:00      0.560     2.341     0.329     0.252
   06/26/2005 11:25:00      0.567     2.346     0.332     0.254
   06/26/2005 11:30:00      0.574     2.368     0.333     0.255
   06/26/2005 11:35:00      0.523     2.297     0.318     0.240
   06/26/2005 11:40:00      0.440     2.178     0.292     0.212
   06/26/2005 11:45:00      0.374     2.075     0.269     0.190
   06/26/2005 11:50:00      0.324     1.984     0.251     0.172
   06/26/2005 11:55:00      0.287     1.908     0.237     0.158
   06/26/2005 12:00:00      0.258     1.843     0.225     0.147
   06/26/2005 12:05:00      0.236     1.787     0.216     0.139
   06/26/2005 12:10:00      0.217     1.739     0.208     0.131
   06/26/2005 12:15:00      0.202     1.697     0.201     0.125
   06/26/2005 12:20:00      0.189     1.662     0.195     0.120
   06/26/2005 12:25:00      0.178     1.631     0.190     0.115
   06/26/2005 12:30:00      0.169     1.603     0.185     0.111
   06/26/2005 12:35:00      0.161     1.579     0.180     0.107
   06/26/2005 12:40:00      0.153     1.557     0.176     0.104
   06/26/2005 12:45:00      0.147     1.536     0.172     0.100
   06/26/2005 12:50:00      0.140     1.516     0.169     0.097
   06/26/2005 12:55:00      0.135     1.498     0.166     0.095
   06/26/2005 13:00:00      0.130     1.480     0.163     0.092
   06/26/2005 13:05:00      0.125     1.465     0.160     0.090
   06/26/2005 13:10:00      0.121     1.450     0.157     0.088
   06/26/2005 13:15:00      0.117     1.436     0.155     0.086
   06/26/2005 13:20:00      0.113     1.421     0.152     0.084
   06/26/2005 13:25:00      0.109     1.407     0.150     0.082
   06/26/2005 13:30:00      0.106     1.393     0.148     0.080
   06/26/2005 13:35:00      0.103     1.380     0.146     0.079
   06/26/2005 13:40:00      0.100     1.367     0.144     0.077
   06/26/2005 13:45:00      0.097     1.355     0.142     0.075
   06/26/2005 13:50:00      0.094     1.344     0.140     0.074
   06/26/2005 13:55:00      0.092     1.332     0.138     0.073
   06/26/2005 14:00:00      0.089     1.322     0.136     0.071
   06/26/2005 14:05:00      0.087     1.311     0.134     0.070
   06/26/2005 14:10:00      0.085     1.302     0.133     0.069
   06/26/2005 14:15:00      0.083     1.292     0.131     0.067
   06/26/2005 14:20:00      0.081     1.282     0.129     0.066
   06/26/2005 14:25:00      0.079     1.273     0.128     0.065
   06/26/2005 14:30:00      0.077     1.263     0.126     0.064
   06/26/2005 14:35:00      0.075     1.254     0.125     0.063
   06/26/2005 14:40:00      0.073     1.245     0.123     0.062
   06/26/2005 14:45:00      0.071     1.237     0.122     0.061
   06/26/2005 14:50:00      0.070     1.228     0.121     0.060
   06/26/2005 14:55:00      0.068     1.220     0.119     0.059
   06/26/2005 15:00:00      0.067     1.212     0.118     0.058
   06/26/2005 15:05:00      0.065     1.205     0.117     0.057
   06/26/2005 15:10:00      0.064     1.198     0.115     0.056
   06/26/2005 15:15:00      0.062     1.190     0.114     0.055
   06/26/2005 15:20:00      0.061     1.183     0.113     0.054
   06/26/2005 15:25:00      0.060     1.177     0.112     0.053
   06/26/2005 15:30:00      0.058     1.170     0.111     0.053
   06/26/2005 15:35:00      0.057     1.163     0.110     0.052
   06/26/2005 15:40:00      0.056     1.156     0.108     0.051
   06/26/2005 15:45:00      0.055     1.148     0.107     0.050
   06/26/2005 15:50:00      0.054     1.141     0.106     0.050
   06/26/2005 15:55:00      0.053     1.134     0.105     0.049
  
  
  <<< Link C22 >>>
  ----------------------------------------------------------------
                             Flow  Velocity     Depth  Capacity/
  Date        Time            CMS     m/sec    meters   Setting 
  ----------------------------------------------------------------
   06/26/2005 03:50:00      0.000     0.000     0.036     0.007
   06/26/2005 03:55:00      0.000     0.001     0.029     0.005
   06/26/2005 04:00:00      0.000     0.041     0.027     0.004
   06/26/2005 04:05:00      0.003     0.346     0.033     0.006
   06/26/2005 04:10:00      0.009     0.667     0.041     0.008
   06/26/2005 04:15:00      0.012     0.719     0.047     0.010
   06/26/2005 04:20:00      0.040     1.192     0.077     0.022
   06/26/2005 04:25:00      0.093     1.451     0.120     0.042
   06/26/2005 04:30:00      0.116     1.327     0.148     0.057
   06/26/2005 04:35:00      0.111     1.194     0.155     0.060
   06/26/2005 04:40:00      0.098     1.137     0.147     0.056
   06/26/2005 04:45:00      0.086     1.118     0.136     0.050
   06/26/2005 04:50:00      0.076     1.101     0.126     0.045
   06/26/2005 04:55:00      0.067     1.087     0.117     0.040
   06/26/2005 05:00:00      0.060     1.069     0.110     0.037
   06/26/2005 05:05:00      0.054     1.044     0.104     0.034
   06/26/2005 05:10:00      0.049     1.022     0.098     0.031
   06/26/2005 05:15:00      0.044     1.002     0.093     0.029
   06/26/2005 05:20:00      0.042     1.001     0.090     0.027
   06/26/2005 05:25:00      0.039     0.990     0.086     0.025
   06/26/2005 05:30:00      0.036     0.966     0.083     0.024
   06/26/2005 05:35:00      0.033     0.940     0.079     0.023
   06/26/2005 05:40:00      0.030     0.916     0.076     0.021
   06/26/2005 05:45:00      0.029     0.915     0.074     0.021
   06/26/2005 05:50:00      0.030     0.943     0.074     0.020
   06/26/2005 05:55:00      0.029     0.932     0.073     0.020
   06/26/2005 06:00:00      0.032     0.989     0.076     0.021
   06/26/2005 06:05:00      0.034     0.996     0.078     0.022
   06/26/2005 06:10:00      0.032     0.947     0.078     0.022
   06/26/2005 06:15:00      0.031     0.911     0.077     0.022
   06/26/2005 06:20:00      0.028     0.875     0.076     0.021
   06/26/2005 06:25:00      0.026     0.851     0.073     0.020
   06/26/2005 06:30:00      0.025     0.832     0.071     0.019
   06/26/2005 06:35:00      0.024     0.837     0.069     0.019
   06/26/2005 06:40:00      0.023     0.832     0.068     0.018
   06/26/2005 06:45:00      0.022     0.812     0.066     0.017
   06/26/2005 06:50:00      0.020     0.794     0.064     0.017
   06/26/2005 06:55:00      0.019     0.780     0.063     0.016
   06/26/2005 07:00:00      0.018     0.768     0.061     0.015
   06/26/2005 07:05:00      0.021     0.842     0.062     0.016
   06/26/2005 07:10:00      0.023     0.886     0.065     0.017
   06/26/2005 07:15:00      0.023     0.867     0.066     0.018
   06/26/2005 07:20:00      0.026     0.894     0.069     0.019
   06/26/2005 07:25:00      0.028     0.917     0.073     0.020
   06/26/2005 07:30:00      0.033     0.979     0.078     0.022
   06/26/2005 07:35:00      0.042     1.067     0.087     0.026
   06/26/2005 07:40:00      0.058     1.182     0.101     0.032
   06/26/2005 07:45:00      0.128     1.587     0.141     0.052
   06/26/2005 07:50:00      0.239     1.813     0.197     0.086
   06/26/2005 07:55:00      0.363     1.931     0.252     0.122
   06/26/2005 08:00:00      0.444     1.966     0.286     0.147
   06/26/2005 08:05:00      0.426     1.884     0.286     0.147
   06/26/2005 08:10:00      0.425     1.948     0.279     0.142
   06/26/2005 08:15:00      0.430     1.984     0.278     0.141
   06/26/2005 08:20:00      0.415     1.956     0.273     0.138
   06/26/2005 08:25:00      0.491     2.153     0.288     0.148
   06/26/2005 08:30:00      0.530     2.141     0.305     0.161
   06/26/2005 08:35:00      0.511     2.078     0.303     0.160
   06/26/2005 08:40:00      0.456     1.997     0.288     0.148
   06/26/2005 08:45:00      0.393     1.914     0.267     0.133
   06/26/2005 08:50:00      0.342     1.856     0.248     0.120
   06/26/2005 08:55:00      0.299     1.792     0.231     0.108
   06/26/2005 09:00:00      0.265     1.738     0.218     0.099
   06/26/2005 09:05:00      0.250     1.734     0.209     0.094
   06/26/2005 09:10:00      0.244     1.734     0.206     0.091
   06/26/2005 09:15:00      0.238     1.712     0.204     0.090
   06/26/2005 09:20:00      0.223     1.661     0.199     0.087
   06/26/2005 09:25:00      0.214     1.645     0.195     0.084
   06/26/2005 09:30:00      0.208     1.634     0.192     0.083
   06/26/2005 09:35:00      0.208     1.644     0.191     0.082
   06/26/2005 09:40:00      0.229     1.723     0.198     0.086
   06/26/2005 09:45:00      0.256     1.769     0.210     0.094
   06/26/2005 09:50:00      0.270     1.761     0.219     0.100
   06/26/2005 09:55:00      0.280     1.766     0.224     0.103
   06/26/2005 10:00:00      0.271     1.721     0.222     0.102
   06/26/2005 10:05:00      0.276     1.758     0.222     0.102
   06/26/2005 10:10:00      0.277     1.759     0.222     0.102
   06/26/2005 10:15:00      0.257     1.695     0.217     0.099
   06/26/2005 10:20:00      0.239     1.666     0.208     0.093
   06/26/2005 10:25:00      0.230     1.672     0.202     0.089
   06/26/2005 10:30:00      0.221     1.662     0.198     0.086
   06/26/2005 10:35:00      0.216     1.658     0.195     0.085
   06/26/2005 10:40:00      0.236     1.744     0.200     0.088
   06/26/2005 10:45:00      0.255     1.768     0.209     0.094
   06/26/2005 10:50:00      0.284     1.824     0.220     0.101
   06/26/2005 10:55:00      0.383     2.043     0.251     0.122
   06/26/2005 11:00:00      0.419     1.984     0.273     0.137
   06/26/2005 11:05:00      0.420     1.962     0.275     0.139
   06/26/2005 11:10:00      0.506     2.168     0.293     0.152
   06/26/2005 11:15:00      0.593     2.245     0.319     0.172
   06/26/2005 11:20:00      0.702     2.360     0.347     0.193
   06/26/2005 11:25:00      0.724     2.326     0.359     0.202
   06/26/2005 11:30:00      0.741     2.369     0.360     0.203
   06/26/2005 11:35:00      0.690     2.294     0.350     0.195
   06/26/2005 11:40:00      0.595     2.191     0.325     0.176
   06/26/2005 11:45:00      0.514     2.128     0.300     0.157
   06/26/2005 11:50:00      0.451     2.068     0.279     0.142
   06/26/2005 11:55:00      0.401     2.012     0.262     0.130
   06/26/2005 12:00:00      0.362     1.964     0.248     0.120
   06/26/2005 12:05:00      0.331     1.917     0.237     0.112
   06/26/2005 12:10:00      0.305     1.878     0.227     0.105
   06/26/2005 12:15:00      0.284     1.845     0.219     0.100
   06/26/2005 12:20:00      0.266     1.814     0.211     0.095
   06/26/2005 12:25:00      0.250     1.786     0.205     0.091
   06/26/2005 12:30:00      0.237     1.761     0.199     0.087
   06/26/2005 12:35:00      0.225     1.739     0.194     0.084
   06/26/2005 12:40:00      0.215     1.717     0.190     0.081
   06/26/2005 12:45:00      0.205     1.695     0.185     0.079
   06/26/2005 12:50:00      0.197     1.676     0.182     0.076
   06/26/2005 12:55:00      0.189     1.658     0.178     0.074
   06/26/2005 13:00:00      0.182     1.644     0.175     0.072
   06/26/2005 13:05:00      0.176     1.631     0.172     0.070
   06/26/2005 13:10:00      0.170     1.619     0.168     0.068
   06/26/2005 13:15:00      0.165     1.607     0.166     0.067
   06/26/2005 13:20:00      0.160     1.594     0.163     0.065
   06/26/2005 13:25:00      0.155     1.583     0.160     0.064
   06/26/2005 13:30:00      0.151     1.572     0.158     0.062
   06/26/2005 13:35:00      0.147     1.561     0.156     0.061
   06/26/2005 13:40:00      0.143     1.550     0.154     0.060
   06/26/2005 13:45:00      0.139     1.540     0.152     0.059
   06/26/2005 13:50:00      0.135     1.530     0.150     0.058
   06/26/2005 13:55:00      0.132     1.521     0.148     0.056
   06/26/2005 14:00:00      0.129     1.512     0.146     0.055
   06/26/2005 14:05:00      0.126     1.503     0.144     0.054
   06/26/2005 14:10:00      0.123     1.495     0.142     0.053
   06/26/2005 14:15:00      0.120     1.487     0.141     0.053
   06/26/2005 14:20:00      0.118     1.478     0.139     0.052
   06/26/2005 14:25:00      0.115     1.469     0.138     0.051
   06/26/2005 14:30:00      0.113     1.461     0.136     0.050
   06/26/2005 14:35:00      0.110     1.452     0.135     0.049
   06/26/2005 14:40:00      0.108     1.444     0.133     0.049
   06/26/2005 14:45:00      0.106     1.436     0.132     0.048
   06/26/2005 14:50:00      0.104     1.428     0.131     0.047
   06/26/2005 14:55:00      0.102     1.420     0.129     0.046
   06/26/2005 15:00:00      0.100     1.412     0.128     0.046
   06/26/2005 15:05:00      0.098     1.405     0.127     0.045
   06/26/2005 15:10:00      0.096     1.397     0.126     0.045
   06/26/2005 15:15:00      0.094     1.390     0.124     0.044
   06/26/2005 15:20:00      0.092     1.383     0.123     0.043
   06/26/2005 15:25:00      0.091     1.376     0.122     0.043
   06/26/2005 15:30:00      0.089     1.370     0.121     0.042
   06/26/2005 15:35:00      0.087     1.364     0.120     0.042
   06/26/2005 15:40:00      0.086     1.358     0.119     0.041
   06/26/2005 15:45:00      0.084     1.352     0.118     0.040
   06/26/2005 15:50:00      0.083     1.346     0.117     0.040
   06/26/2005 15:55:00      0.081     1.341     0.116     0.039
  

  Analysis begun on:  Wed Mar 27 18:37:00 2019
  Analysis ended on:  Wed Mar 27 18:37:01 2019
  Total elapsed time: 00:00:01