
  EPA STORM WATER MANAGEMENT MODEL - VERSION 5.1 (Build 5.1.012)
  --------------------------------------------------------------

  
  *************
  Element Count
  *************
  Number of rain gages ...... 1
  Number of subcatchments ... 15
  Number of nodes ........... 25
  Number of links ........... 24
  Number of pollutants ...... 0
  Number of land uses ....... 0
  
  
  ****************
  Raingage Summary
  ****************
                                                      Data       Recording
  Name                 Data Source                    Type       Interval 
  ------------------------------------------------------------------------
  1                    20050626                       VOLUME       5 min.
  
  
  ********************
  Subcatchment Summary
  ********************
  Name                       Area     Width   %Imperv    %Slope Rain Gage            Outlet              
  -----------------------------------------------------------------------------------------------------------
  S1                         2.21    400.00     80.00    0.0500 1                    J1                  
  S2                         7.25    400.00     50.00    0.0500 1                    J0                  
  S3                         1.53    400.00     30.00    0.0500 1                    J4                  
  S4                         6.18    400.00     20.00    0.0500 1                    J8                  
  S5                         9.28    400.00     20.00    0.0500 1                    J7                  
  S6                         6.98    400.00     60.00    0.0500 1                    J5                  
  S7                         3.28    400.00     40.00    0.0500 1                    J25                 
  S8                        10.68    400.00     70.00    0.0500 1                    J11                 
  S9                        16.43    400.00     40.00    0.0500 1                    J14                 
  S10                        2.73    400.00     40.00    0.0500 1                    J9                  
  S11                        9.27    700.00     40.00    0.0500 1                    J10                 
  S12                       10.58    400.00     60.00    0.0500 1                    J17                 
  S13                       10.08    500.00     60.00    0.0500 1                    J24                 
  S14                       11.53    400.00     40.00    0.0500 1                    J15                 
  S15                        8.92    400.00     50.00    0.0500 1                    J23                 
  
  
  ************
  Node Summary
  ************
                                           Invert      Max.    Ponded    External
  Name                 Type                 Elev.     Depth      Area    Inflow  
  -------------------------------------------------------------------------------
  J0                   JUNCTION             30.99      4.00       0.0
  J1                   JUNCTION             28.99      4.00       0.0
  J2                   JUNCTION             25.99      4.00       0.0
  J3                   JUNCTION             30.99      4.00       0.0
  J4                   JUNCTION             33.99      4.00       0.0
  J5                   JUNCTION             28.99      4.00       0.0
  J6                   JUNCTION             23.79      4.00       0.0
  J7                   JUNCTION             28.39      4.00       0.0
  J8                   JUNCTION             29.99      4.00       0.0
  J9                   JUNCTION             28.69      4.00       0.0
  J10                  JUNCTION             25.99      4.00       0.0
  J11                  JUNCTION             25.69      4.00       0.0
  J12                  JUNCTION             22.79      4.00       0.0
  J13                  JUNCTION             25.29      4.00       0.0
  J14                  JUNCTION             24.59      4.00       0.0
  J15                  JUNCTION             24.19      4.00       0.0
  J16                  JUNCTION             23.39      4.00       0.0
  J17                  JUNCTION             22.09      4.00       0.0
  J18                  JUNCTION             16.00      4.00       0.0
  J20                  JUNCTION             17.70      4.00       0.0
  J21                  JUNCTION             19.00      4.00       0.0
  J23                  JUNCTION             22.29      4.00       0.0
  J24                  JUNCTION             20.89      4.00       0.0
  J25                  JUNCTION             30.19      4.00       0.0
  J19                  OUTFALL              15.50      3.60       0.0
  
  
  ************
  Link Summary
  ************
  Name             From Node        To Node          Type            Length    %Slope Roughness
  ---------------------------------------------------------------------------------------------
  C0               J0               J2               CONDUIT          214.0    2.3371    0.0110
  C1               J1               J2               CONDUIT          152.0    1.9741    0.0110
  C2               J3               J2               CONDUIT          306.0    1.6342    0.0110
  C3               J4               J3               CONDUIT          128.0    2.3444    0.0110
  C4               J2               J6               CONDUIT          293.0    0.7509    0.0110
  C5               J5               J6               CONDUIT          246.0    2.1143    0.0110
  C6               J25              J11              CONDUIT          289.0    1.5573    0.0110
  C7               J6               J12              CONDUIT          335.0    0.2985    0.0110
  C8               J7               J6               CONDUIT          187.0    2.4606    0.0110
  C9               J8               J9               CONDUIT          119.0    1.0925    0.0110
  C10              J9               J16              CONDUIT          325.0    1.6310    0.0110
  C11              J10              J11              CONDUIT          227.0    0.1322    0.0110
  C12              J12              J18              CONDUIT          401.0    1.6935    0.0110
  C13              J17              J18              CONDUIT          267.0    2.2815    0.0110
  C14              J11              J13              CONDUIT          113.0    0.3540    0.0110
  C16              J13              J17              CONDUIT          409.0    0.7824    0.0110
  C17              J24              J20              CONDUIT          329.0    0.9697    0.0110
  C18              J20              J18              CONDUIT          215.0    0.7907    0.0110
  C19              J16              J21              CONDUIT          437.0    1.0046    0.0110
  C20              J21              J20              CONDUIT          295.0    0.4407    0.0110
  C21              J23              J21              CONDUIT          204.0    1.6130    0.0110
  C23              J18              J19              CONDUIT          161.0    0.3106    0.0110
  C24              J15              J16              CONDUIT          197.0    0.4061    0.0110
  C22              J14              J12              CONDUIT          280.0    0.6429    0.0110
  
  
  *********************
  Cross Section Summary
  *********************
                                        Full     Full     Hyd.     Max.   No. of     Full
  Conduit          Shape               Depth     Area     Rad.    Width  Barrels     Flow
  ---------------------------------------------------------------------------------------
  C0               CIRCULAR             0.70     0.38     0.17     0.70        1     1.67
  C1               CIRCULAR             0.60     0.28     0.15     0.60        1     1.02
  C2               CIRCULAR             0.80     0.50     0.20     0.80        1     2.00
  C3               CIRCULAR             0.60     0.28     0.15     0.60        1     1.11
  C4               CIRCULAR             1.20     1.13     0.30     1.20        1     3.99
  C5               CIRCULAR             0.70     0.38     0.17     0.70        1     1.59
  C6               CIRCULAR             0.80     0.50     0.20     0.80        1     1.95
  C7               CIRCULAR             2.40     4.52     0.60     2.40        1    15.99
  C8               CIRCULAR             0.70     0.38     0.17     0.70        1     1.72
  C9               CIRCULAR             0.70     0.38     0.17     0.70        1     1.14
  C10              CIRCULAR             1.00     0.79     0.25     1.00        1     3.62
  C11              CIRCULAR             1.50     1.77     0.38     1.50        1     3.04
  C12              CIRCULAR             3.00     7.07     0.75     3.00        1    69.04
  C13              CIRCULAR             1.50     1.77     0.38     1.50        1    12.62
  C14              CIRCULAR             1.50     1.77     0.38     1.50        1     4.97
  C16              CIRCULAR             1.35     1.43     0.34     1.35        1     5.58
  C17              CIRCULAR             0.80     0.50     0.20     0.80        1     1.54
  C18              CIRCULAR             3.00     7.07     0.75     3.00        1    47.18
  C19              CIRCULAR             3.00     7.07     0.75     3.00        1    53.18
  C20              CIRCULAR             3.00     7.07     0.75     3.00        1    35.22
  C21              CIRCULAR             1.00     0.79     0.25     1.00        1     3.60
  C23              CIRCULAR             3.60    10.18     0.90     3.60        1    48.08
  C24              CIRCULAR             1.10     0.95     0.28     1.10        1     2.33
  C22              CIRCULAR             1.40     1.54     0.35     1.40        1     5.57
  
  
  
  *********************************************************
  NOTE: The summary statistics displayed in this report are
  based on results found at every computational time step,  
  not just on results from each reporting time step.
  *********************************************************
  
  ****************
  Analysis Options
  ****************
  Flow Units ............... CMS
  Process Models:
    Rainfall/Runoff ........ YES
    RDII ................... NO
    Snowmelt ............... NO
    Groundwater ............ NO
    Flow Routing ........... YES
    Ponding Allowed ........ NO
    Water Quality .......... NO
  Infiltration Method ...... HORTON
  Flow Routing Method ...... DYNWAVE
  Starting Date ............ 06/26/2005 03:45:00
  Ending Date .............. 06/26/2005 17:00:00
  Antecedent Dry Days ...... 0.0
  Report Time Step ......... 00:05:00
  Wet Time Step ............ 00:05:00
  Dry Time Step ............ 01:00:00
  Routing Time Step ........ 30.00 sec
  Variable Time Step ....... YES
  Maximum Trials ........... 8
  Number of Threads ........ 1
  Head Tolerance ........... 0.005000 m
  
  
  **************************        Volume         Depth
  Runoff Quantity Continuity     hectare-m            mm
  **************************     ---------       -------
  Total Precipitation ......         9.122        78.000
  Evaporation Loss .........         0.000         0.000
  Infiltration Loss ........         0.057         0.491
  Surface Runoff ...........         7.912        67.661
  Final Storage ............         1.166         9.970
  Continuity Error (%) .....        -0.157
  
  
  **************************        Volume        Volume
  Flow Routing Continuity        hectare-m      10^6 ltr
  **************************     ---------     ---------
  Dry Weather Inflow .......         0.000         0.000
  Wet Weather Inflow .......         7.906        79.056
  Groundwater Inflow .......         0.000         0.000
  RDII Inflow ..............         0.000         0.000
  External Inflow ..........         0.000         0.000
  External Outflow .........         7.878        78.780
  Flooding Loss ............         0.000         0.000
  Evaporation Loss .........         0.000         0.000
  Exfiltration Loss ........         0.000         0.000
  Initial Stored Volume ....         0.021         0.207
  Final Stored Volume ......         0.039         0.388
  Continuity Error (%) .....         0.120
  
  
  ***************************
  Time-Step Critical Elements
  ***************************
  Link C14 (48.19%)
  
  
  ********************************
  Highest Flow Instability Indexes
  ********************************
  Link C9 (2)
  Link C21 (2)
  Link C17 (2)
  Link C23 (2)
  Link C5 (2)
  
  
  *************************
  Routing Time Step Summary
  *************************
  Minimum Time Step           :    10.65 sec
  Average Time Step           :    26.60 sec
  Maximum Time Step           :    30.00 sec
  Percent in Steady State     :     0.00
  Average Iterations per Step :     2.00
  Percent Not Converging      :     0.00
  
  
  ***************************
  Subcatchment Runoff Summary
  ***************************
  
  --------------------------------------------------------------------------------------------------------
                            Total      Total      Total      Total      Total       Total     Peak  Runoff
                           Precip      Runon       Evap      Infil     Runoff      Runoff   Runoff   Coeff
  Subcatchment                 mm         mm         mm         mm         mm    10^6 ltr      CMS
  --------------------------------------------------------------------------------------------------------
  S1                        78.00       0.00       0.00       0.18      76.19        1.68     0.23   0.977
  S2                        78.00       0.00       0.00       0.46      70.32        5.10     0.50   0.902
  S3                        78.00       0.00       0.00       0.65      73.08        1.12     0.12   0.937
  S4                        78.00       0.00       0.00       0.74      63.68        3.94     0.32   0.816
  S5                        78.00       0.00       0.00       0.74      58.85        5.46     0.43   0.755
  S6                        78.00       0.00       0.00       0.37      72.51        5.06     0.51   0.930
  S7                        78.00       0.00       0.00       0.55      72.05        2.36     0.25   0.924
  S8                        78.00       0.00       0.00       0.28      72.87        7.78     0.76   0.934
  S9                        78.00       0.00       0.00       0.55      60.13        9.88     0.82   0.771
  S10                       78.00       0.00       0.00       0.55      72.65        1.99     0.22   0.931
  S11                       78.00       0.00       0.00       0.55      69.89        6.48     0.64   0.896
  S12                       78.00       0.00       0.00       0.37      70.71        7.48     0.71   0.906
  S13                       78.00       0.00       0.00       0.37      71.96        7.25     0.71   0.923
  S14                       78.00       0.00       0.00       0.55      63.91        7.37     0.64   0.819
  S15                       78.00       0.00       0.00       0.46      69.12        6.16     0.58   0.886
  
  
  ******************
  Node Depth Summary
  ******************
  
  ---------------------------------------------------------------------------------
                                 Average  Maximum  Maximum  Time of Max    Reported
                                   Depth    Depth      HGL   Occurrence   Max Depth
  Node                 Type       Meters   Meters   Meters  days hr:min      Meters
  ---------------------------------------------------------------------------------
  J0                   JUNCTION     0.11     0.26    31.25     0  07:35        0.26
  J1                   JUNCTION     0.07     0.19    29.18     0  07:35        0.19
  J2                   JUNCTION     0.16     0.37    26.36     0  07:37        0.37
  J3                   JUNCTION     0.06     0.13    31.12     0  07:36        0.13
  J4                   JUNCTION     0.06     0.14    34.13     0  07:35        0.13
  J5                   JUNCTION     0.12     0.27    29.26     0  07:35        0.27
  J6                   JUNCTION     0.25     0.55    24.34     0  07:38        0.55
  J7                   JUNCTION     0.12     0.24    28.63     0  07:35        0.24
  J8                   JUNCTION     0.12     0.26    30.25     0  07:35        0.25
  J9                   JUNCTION     0.12     0.26    28.95     0  07:36        0.26
  J10                  JUNCTION     0.20     0.46    26.45     0  07:36        0.46
  J11                  JUNCTION     0.26     0.58    26.27     0  07:37        0.58
  J12                  JUNCTION     0.19     0.39    23.18     0  07:40        0.39
  J13                  JUNCTION     0.22     0.51    25.80     0  07:38        0.50
  J14                  JUNCTION     0.18     0.36    24.95     0  07:45        0.36
  J15                  JUNCTION     0.19     0.40    24.59     0  07:45        0.40
  J16                  JUNCTION     0.15     0.31    23.70     0  07:37        0.30
  J17                  JUNCTION     0.19     0.43    22.52     0  07:39        0.43
  J18                  JUNCTION     0.44     0.95    16.95     0  07:41        0.94
  J20                  JUNCTION     0.22     0.46    18.16     0  07:46        0.46
  J21                  JUNCTION     0.21     0.45    19.45     0  07:39        0.45
  J23                  JUNCTION     0.12     0.27    22.56     0  07:35        0.27
  J24                  JUNCTION     0.16     0.38    21.27     0  07:45        0.38
  J25                  JUNCTION     0.08     0.19    30.38     0  07:35        0.19
  J19                  OUTFALL      0.43     0.95    16.45     0  07:42        0.94
  
  
  *******************
  Node Inflow Summary
  *******************
  
  -------------------------------------------------------------------------------------------------
                                  Maximum  Maximum                  Lateral       Total        Flow
                                  Lateral    Total  Time of Max      Inflow      Inflow     Balance
                                   Inflow   Inflow   Occurrence      Volume      Volume       Error
  Node                 Type           CMS      CMS  days hr:min    10^6 ltr    10^6 ltr     Percent
  -------------------------------------------------------------------------------------------------
  J0                   JUNCTION     0.497    0.497     0  07:35         5.1         5.1      -0.132
  J1                   JUNCTION     0.228    0.228     0  07:35        1.68        1.68      -0.050
  J2                   JUNCTION     0.000    0.843     0  07:35           0        7.91      -0.090
  J3                   JUNCTION     0.000    0.123     0  07:35           0        1.12       0.057
  J4                   JUNCTION     0.123    0.123     0  07:35        1.12        1.12      -0.044
  J5                   JUNCTION     0.514    0.514     0  07:35        5.06        5.06       0.011
  J6                   JUNCTION     0.000    1.756     0  07:37           0        18.4       0.060
  J7                   JUNCTION     0.426    0.426     0  07:35        5.45        5.45       0.045
  J8                   JUNCTION     0.324    0.324     0  07:35        3.93        3.93       0.035
  J9                   JUNCTION     0.215    0.538     0  07:35        1.99        5.91       0.053
  J10                  JUNCTION     0.637    0.637     0  07:35        6.48        6.48       0.056
  J11                  JUNCTION     0.755    1.607     0  07:36        7.78        16.6       0.105
  J12                  JUNCTION     0.000    2.551     0  07:39           0        28.3       0.008
  J13                  JUNCTION     0.000    1.598     0  07:38           0        16.6       0.053
  J14                  JUNCTION     0.823    0.823     0  07:45        9.87        9.87       0.086
  J15                  JUNCTION     0.640    0.640     0  07:45        7.36        7.36       0.059
  J16                  JUNCTION     0.000    1.170     0  07:36           0        13.3       0.158
  J17                  JUNCTION     0.709    2.291     0  07:39        7.48        24.1       0.045
  J18                  JUNCTION     0.000    7.248     0  07:40           0        78.9       0.154
  J20                  JUNCTION     0.000    2.422     0  07:45           0        26.6       0.102
  J21                  JUNCTION     0.000    1.729     0  07:37           0        19.4       0.232
  J23                  JUNCTION     0.577    0.577     0  07:35        6.16        6.16       0.011
  J24                  JUNCTION     0.714    0.714     0  07:35        7.25        7.25       0.012
  J25                  JUNCTION     0.250    0.250     0  07:35        2.36        2.36      -0.006
  J19                  OUTFALL      0.000    7.260     0  07:42           0        78.8       0.000
  
  
  **********************
  Node Surcharge Summary
  **********************
  
  No nodes were surcharged.
  
  
  *********************
  Node Flooding Summary
  *********************
  
  No nodes were flooded.
  
  
  ***********************
  Outfall Loading Summary
  ***********************
  
  -----------------------------------------------------------
                         Flow       Avg       Max       Total
                         Freq      Flow      Flow      Volume
  Outfall Node           Pcnt       CMS       CMS    10^6 ltr
  -----------------------------------------------------------
  J19                  100.00     1.918     7.260      78.780
  -----------------------------------------------------------
  System               100.00     1.918     7.260      78.780
  
  
  ********************
  Link Flow Summary
  ********************
  
  -----------------------------------------------------------------------------
                                 Maximum  Time of Max   Maximum    Max/    Max/
                                  |Flow|   Occurrence   |Veloc|    Full    Full
  Link                 Type          CMS  days hr:min     m/sec    Flow   Depth
  -----------------------------------------------------------------------------
  C0                   CONDUIT     0.497     0  07:35      4.43    0.30    0.45
  C1                   CONDUIT     0.227     0  07:35      1.89    0.22    0.47
  C2                   CONDUIT     0.121     0  07:36      0.89    0.06    0.31
  C3                   CONDUIT     0.123     0  07:35      2.61    0.11    0.22
  C4                   CONDUIT     0.827     0  07:37      2.08    0.21    0.38
  C5                   CONDUIT     0.514     0  07:36      2.23    0.32    0.58
  C6                   CONDUIT     0.248     0  07:36      1.03    0.13    0.48
  C7                   CONDUIT     1.755     0  07:39      2.81    0.11    0.20
  C8                   CONDUIT     0.426     0  07:35      1.95    0.25    0.56
  C9                   CONDUIT     0.324     0  07:35      2.53    0.28    0.37
  C10                  CONDUIT     0.535     0  07:36      2.95    0.15    0.28
  C11                  CONDUIT     0.629     0  07:36      1.15    0.21    0.35
  C12                  CONDUIT     2.545     0  07:40      2.59    0.04    0.22
  C13                  CONDUIT     2.289     0  07:39      2.91    0.18    0.46
  C14                  CONDUIT     1.598     0  07:38      2.76    0.32    0.36
  C16                  CONDUIT     1.600     0  07:39      3.62    0.29    0.35
  C17                  CONDUIT     0.712     0  07:45      2.71    0.46    0.53
  C18                  CONDUIT     2.419     0  07:46      1.92    0.05    0.23
  C19                  CONDUIT     1.157     0  07:38      2.25    0.02    0.13
  C20                  CONDUIT     1.718     0  07:39      2.54    0.05    0.15
  C21                  CONDUIT     0.577     0  07:35      2.32    0.16    0.36
  C23                  CONDUIT     7.260     0  07:42      3.66    0.15    0.26
  C24                  CONDUIT     0.639     0  07:45      2.44    0.27    0.32
  C22                  CONDUIT     0.821     0  07:45      2.45    0.15    0.27
  
  
  ***************************
  Flow Classification Summary
  ***************************
  
  -------------------------------------------------------------------------------------
                      Adjusted    ---------- Fraction of Time in Flow Class ---------- 
                       /Actual         Up    Down  Sub   Sup   Up    Down  Norm  Inlet 
  Conduit               Length    Dry  Dry   Dry   Crit  Crit  Crit  Crit  Ltd   Ctrl  
  -------------------------------------------------------------------------------------
  C0                      1.00   0.00  0.00  0.00  0.02  0.98  0.00  0.00  1.00  0.00
  C1                      1.00   0.00  0.01  0.00  0.70  0.29  0.00  0.00  0.99  0.00
  C2                      1.00   0.00  0.01  0.00  0.99  0.00  0.00  0.00  0.99  0.00
  C3                      1.00   0.01  0.00  0.00  0.00  0.99  0.00  0.00  0.84  0.00
  C4                      1.00   0.00  0.00  0.00  0.61  0.39  0.00  0.00  1.00  0.00
  C5                      1.00   0.00  0.01  0.00  0.40  0.60  0.00  0.00  0.99  0.00
  C6                      1.00   0.01  0.00  0.00  0.98  0.01  0.00  0.00  0.99  0.00
  C7                      1.00   0.00  0.00  0.00  0.00  1.00  0.00  0.00  0.00  0.00
  C8                      1.00   0.00  0.01  0.00  0.34  0.65  0.00  0.00  0.99  0.00
  C9                      1.00   0.01  0.00  0.00  0.01  0.99  0.00  0.00  0.49  0.00
  C10                     1.00   0.01  0.00  0.00  0.00  0.99  0.00  0.00  0.95  0.00
  C11                     1.00   0.01  0.00  0.00  0.99  0.00  0.00  0.00  0.96  0.00
  C12                     1.00   0.00  0.00  0.00  0.66  0.34  0.00  0.00  1.00  0.00
  C13                     1.00   0.00  0.01  0.00  0.28  0.72  0.00  0.00  0.99  0.00
  C14                     1.00   0.01  0.00  0.00  0.01  0.98  0.00  0.00  0.31  0.00
  C16                     1.00   0.01  0.00  0.00  0.02  0.97  0.00  0.00  0.02  0.00
  C17                     1.00   0.01  0.00  0.00  0.22  0.77  0.00  0.00  0.94  0.00
  C18                     1.00   0.00  0.01  0.00  0.99  0.00  0.00  0.00  0.99  0.00
  C19                     1.00   0.01  0.00  0.00  0.02  0.98  0.00  0.00  0.99  0.00
  C20                     1.00   0.01  0.00  0.00  0.02  0.97  0.00  0.00  0.50  0.00
  C21                     1.00   0.01  0.00  0.00  0.19  0.81  0.00  0.00  0.98  0.00
  C23                     1.00   0.00  0.00  0.00  0.00  1.00  0.00  0.00  0.58  0.00
  C24                     1.00   0.01  0.00  0.00  0.01  0.98  0.00  0.00  0.00  0.00
  C22                     1.00   0.00  0.01  0.00  0.02  0.98  0.00  0.00  0.65  0.00
  
  
  *************************
  Conduit Surcharge Summary
  *************************
  
  No conduits were surcharged.
  
  
  ********************
  Subcatchment Results
  ********************
  
  <<< Subcatchment S1 >>>
  ---------------------------------------------------
  Date        Time        Precip.    Losses    Runoff
                            mm/hr     mm/hr       CMS
  ---------------------------------------------------
   06/26/2005 03:50:00      2.400     0.139    0.0000
   06/26/2005 03:55:00     10.800     0.340    0.0000
   06/26/2005 04:00:00     14.400     0.259    0.0016
   06/26/2005 04:05:00      2.400     0.102    0.0077
   06/26/2005 04:10:00      3.600     0.121    0.0081
   06/26/2005 04:15:00     31.200     0.000    0.0096
   06/26/2005 04:20:00     24.000     0.000    0.0475
   06/26/2005 04:25:00     10.800     0.124    0.0740
   06/26/2005 04:30:00      1.200     0.056    0.0683
   06/26/2005 04:35:00      0.000     0.000    0.0484
   06/26/2005 04:40:00      0.000     0.000    0.0347
   06/26/2005 04:45:00      0.000     0.000    0.0260
   06/26/2005 04:50:00      0.000     0.000    0.0201
   06/26/2005 04:55:00      0.000     0.000    0.0161
   06/26/2005 05:00:00      0.000     0.000    0.0131
   06/26/2005 05:05:00      0.000     0.000    0.0109
   06/26/2005 05:10:00      0.000     0.000    0.0092
   06/26/2005 05:15:00      1.200     0.054    0.0078
   06/26/2005 05:20:00      0.000     0.000    0.0077
   06/26/2005 05:25:00      0.000     0.000    0.0067
   06/26/2005 05:30:00      0.000     0.000    0.0058
   06/26/2005 05:35:00      0.000     0.000    0.0051
   06/26/2005 05:40:00      1.200     0.053    0.0046
   06/26/2005 05:45:00      2.400     0.077    0.0049
   06/26/2005 05:50:00      0.000     0.000    0.0061
   06/26/2005 05:55:00      6.000     0.085    0.0053
   06/26/2005 06:00:00      0.000     0.000    0.0097
   06/26/2005 06:05:00      1.200     0.048    0.0082
   06/26/2005 06:10:00      0.000     0.000    0.0080
   06/26/2005 06:15:00      0.000     0.000    0.0069
   06/26/2005 06:20:00      0.000     0.000    0.0060
   06/26/2005 06:25:00      0.000     0.000    0.0053
   06/26/2005 06:30:00      1.200     0.047    0.0047
   06/26/2005 06:35:00      0.000     0.000    0.0050
   06/26/2005 06:40:00      0.000     0.000    0.0044
   06/26/2005 06:45:00      0.000     0.000    0.0039
   06/26/2005 06:50:00      0.000     0.000    0.0035
   06/26/2005 06:55:00      0.000     0.000    0.0032
   06/26/2005 07:00:00      4.800     0.069    0.0029
   06/26/2005 07:05:00      1.200     0.044    0.0058
   06/26/2005 07:10:00      1.200     0.043    0.0060
   06/26/2005 07:15:00      3.600     0.058    0.0062
   06/26/2005 07:20:00      2.400     0.054    0.0083
   06/26/2005 07:25:00      6.000     0.025    0.0092
   06/26/2005 07:30:00      7.200     0.000    0.0137
   06/26/2005 07:35:00     12.000     0.000    0.0193
   06/26/2005 07:40:00     39.600     0.000    0.0308
   06/26/2005 07:45:00     40.800     0.000    0.0921
   06/26/2005 07:50:00     45.600     0.000    0.1474
   06/26/2005 07:55:00     34.800     0.000    0.1974
   06/26/2005 08:00:00     12.000     0.000    0.1997
   06/26/2005 08:05:00     21.600     0.000    0.1456
   06/26/2005 08:10:00     20.400     0.000    0.1396
   06/26/2005 08:15:00     14.400     0.000    0.1335
   06/26/2005 08:20:00     42.000     0.000    0.1166
   06/26/2005 08:25:00     27.600     0.000    0.1708
   06/26/2005 08:30:00     16.800     0.000    0.1691
   06/26/2005 08:35:00      7.200     0.000    0.1425
   06/26/2005 08:40:00      2.400     0.050    0.1068
   06/26/2005 08:45:00      2.400     0.047    0.0770
   06/26/2005 08:50:00      1.200     0.037    0.0592
   06/26/2005 08:55:00      1.200     0.036    0.0458
   06/26/2005 09:00:00      6.000     0.000    0.0368
   06/26/2005 09:05:00      7.200     0.000    0.0373
   06/26/2005 09:10:00      6.000     0.000    0.0394
   06/26/2005 09:15:00      2.400     0.042    0.0392
   06/26/2005 09:20:00      4.800     0.016    0.0336
   06/26/2005 09:25:00      4.800     0.014    0.0329
   06/26/2005 09:30:00      7.200     0.000    0.0324
   06/26/2005 09:35:00     15.600     0.000    0.0354
   06/26/2005 09:40:00     15.600     0.000    0.0512
   06/26/2005 09:45:00     12.000     0.000    0.0639
   06/26/2005 09:50:00     12.000     0.000    0.0666
   06/26/2005 09:55:00      4.800     0.013    0.0684
   06/26/2005 10:00:00     12.000     0.000    0.0568
   06/26/2005 10:05:00      8.400     0.000    0.0616
   06/26/2005 10:10:00      1.200     0.034    0.0586
   06/26/2005 10:15:00      2.400     0.036    0.0446
   06/26/2005 10:20:00      4.800     0.005    0.0372
   06/26/2005 10:25:00      3.600     0.023    0.0355
   06/26/2005 10:30:00      4.800     0.002    0.0325
   06/26/2005 10:35:00     15.600     0.000    0.0320
   06/26/2005 10:40:00     12.000     0.000    0.0482
   06/26/2005 10:45:00     18.000     0.000    0.0552
   06/26/2005 10:50:00     42.000     0.000    0.0714
   06/26/2005 10:55:00     16.800     0.000    0.1355
   06/26/2005 11:00:00     14.400     0.000    0.1215
   06/26/2005 11:05:00     40.800     0.000    0.1085
   06/26/2005 11:10:00     37.200     0.000    0.1614
   06/26/2005 11:15:00     46.800     0.000    0.1868
   06/26/2005 11:20:00     27.600     0.000    0.2278
   06/26/2005 11:25:00     31.200     0.000    0.2001
   06/26/2005 11:30:00     13.200     0.000    0.1953
   06/26/2005 11:35:00      1.200     0.031    0.1487
   06/26/2005 11:40:00      1.200     0.031    0.0982
   06/26/2005 11:45:00      0.000     0.000    0.0702
   06/26/2005 11:50:00      0.000     0.000    0.0512
   06/26/2005 11:55:00      0.000     0.000    0.0389
   06/26/2005 12:00:00      0.000     0.000    0.0305
   06/26/2005 12:05:00      0.000     0.000    0.0245
   06/26/2005 12:10:00      0.000     0.000    0.0201
   06/26/2005 12:15:00      0.000     0.000    0.0168
   06/26/2005 12:20:00      0.000     0.000    0.0142
   06/26/2005 12:25:00      0.000     0.000    0.0121
   06/26/2005 12:30:00      0.000     0.000    0.0105
   06/26/2005 12:35:00      0.000     0.000    0.0091
   06/26/2005 12:40:00      0.000     0.000    0.0080
   06/26/2005 12:45:00      0.000     0.000    0.0071
   06/26/2005 12:50:00      0.000     0.000    0.0063
   06/26/2005 12:55:00      0.000     0.000    0.0056
   06/26/2005 13:00:00      0.000     0.000    0.0051
   06/26/2005 13:05:00      0.000     0.000    0.0046
   06/26/2005 13:10:00      0.000     0.000    0.0041
   06/26/2005 13:15:00      0.000     0.000    0.0038
   06/26/2005 13:20:00      0.000     0.000    0.0034
   06/26/2005 13:25:00      0.000     0.000    0.0032
   06/26/2005 13:30:00      0.000     0.000    0.0029
   06/26/2005 13:35:00      0.000     0.000    0.0027
   06/26/2005 13:40:00      0.000     0.000    0.0025
   06/26/2005 13:45:00      0.000     0.000    0.0023
   06/26/2005 13:50:00      0.000     0.000    0.0021
   06/26/2005 13:55:00      0.000     0.000    0.0020
   06/26/2005 14:00:00      0.000     0.000    0.0018
   06/26/2005 14:05:00      0.000     0.000    0.0017
   06/26/2005 14:10:00      0.000     0.000    0.0016
   06/26/2005 14:15:00      0.000     0.000    0.0015
   06/26/2005 14:20:00      0.000     0.000    0.0014
   06/26/2005 14:25:00      0.000     0.000    0.0013
   06/26/2005 14:30:00      0.000     0.000    0.0013
   06/26/2005 14:35:00      0.000     0.000    0.0012
   06/26/2005 14:40:00      0.000     0.000    0.0011
   06/26/2005 14:45:00      0.000     0.000    0.0011
   06/26/2005 14:50:00      0.000     0.000    0.0010
   06/26/2005 14:55:00      0.000     0.000    0.0010
   06/26/2005 15:00:00      0.000     0.000    0.0009
   06/26/2005 15:05:00      0.000     0.000    0.0009
   06/26/2005 15:10:00      0.000     0.000    0.0008
   06/26/2005 15:15:00      0.000     0.000    0.0008
   06/26/2005 15:20:00      0.000     0.000    0.0007
   06/26/2005 15:25:00      0.000     0.000    0.0007
   06/26/2005 15:30:00      0.000     0.000    0.0007
   06/26/2005 15:35:00      0.000     0.000    0.0006
   06/26/2005 15:40:00      0.000     0.000    0.0006
   06/26/2005 15:45:00      0.000     0.000    0.0006
   06/26/2005 15:50:00      0.000     0.000    0.0006
   06/26/2005 15:55:00      0.000     0.000    0.0005
   06/26/2005 16:00:00      0.000     0.000    0.0005
   06/26/2005 16:05:00      0.000     0.000    0.0005
   06/26/2005 16:10:00      0.000     0.000    0.0005
   06/26/2005 16:15:00      0.000     0.000    0.0005
   06/26/2005 16:20:00      0.000     0.000    0.0004
   06/26/2005 16:25:00      0.000     0.000    0.0004
   06/26/2005 16:30:00      0.000     0.000    0.0004
   06/26/2005 16:35:00      0.000     0.000    0.0004
   06/26/2005 16:40:00      0.000     0.000    0.0004
   06/26/2005 16:45:00      0.000     0.000    0.0004
   06/26/2005 16:50:00      0.000     0.000    0.0004
   06/26/2005 16:55:00      0.000     0.000    0.0003
   06/26/2005 17:00:00      0.000     0.000    0.0003
  
  
  <<< Subcatchment S2 >>>
  ---------------------------------------------------
  Date        Time        Precip.    Losses    Runoff
                            mm/hr     mm/hr       CMS
  ---------------------------------------------------
   06/26/2005 03:50:00      2.400     0.348    0.0000
   06/26/2005 03:55:00     10.800     0.850    0.0000
   06/26/2005 04:00:00     14.400     0.647    0.0017
   06/26/2005 04:05:00      2.400     0.255    0.0083
   06/26/2005 04:10:00      3.600     0.304    0.0095
   06/26/2005 04:15:00     31.200     0.000    0.0119
   06/26/2005 04:20:00     24.000     0.000    0.0561
   06/26/2005 04:25:00     10.800     0.311    0.0957
   06/26/2005 04:30:00      1.200     0.139    0.1004
   06/26/2005 04:35:00      0.000     0.000    0.0824
   06/26/2005 04:40:00      0.000     0.000    0.0668
   06/26/2005 04:45:00      0.000     0.000    0.0553
   06/26/2005 04:50:00      0.000     0.000    0.0464
   06/26/2005 04:55:00      0.000     0.000    0.0396
   06/26/2005 05:00:00      0.000     0.000    0.0342
   06/26/2005 05:05:00      0.000     0.000    0.0298
   06/26/2005 05:10:00      0.000     0.000    0.0263
   06/26/2005 05:15:00      1.200     0.136    0.0234
   06/26/2005 05:20:00      0.000     0.000    0.0225
   06/26/2005 05:25:00      0.000     0.000    0.0202
   06/26/2005 05:30:00      0.000     0.000    0.0183
   06/26/2005 05:35:00      0.000     0.000    0.0167
   06/26/2005 05:40:00      1.200     0.133    0.0153
   06/26/2005 05:45:00      2.400     0.192    0.0154
   06/26/2005 05:50:00      0.000     0.000    0.0169
   06/26/2005 05:55:00      6.000     0.211    0.0155
   06/26/2005 06:00:00      0.000     0.000    0.0216
   06/26/2005 06:05:00      1.200     0.120    0.0195
   06/26/2005 06:10:00      0.000     0.000    0.0193
   06/26/2005 06:15:00      0.000     0.000    0.0176
   06/26/2005 06:20:00      0.000     0.000    0.0162
   06/26/2005 06:25:00      0.000     0.000    0.0149
   06/26/2005 06:30:00      1.200     0.118    0.0139
   06/26/2005 06:35:00      0.000     0.000    0.0142
   06/26/2005 06:40:00      0.000     0.000    0.0132
   06/26/2005 06:45:00      0.000     0.000    0.0123
   06/26/2005 06:50:00      0.000     0.000    0.0116
   06/26/2005 06:55:00      0.000     0.000    0.0109
   06/26/2005 07:00:00      4.800     0.171    0.0103
   06/26/2005 07:05:00      1.200     0.111    0.0146
   06/26/2005 07:10:00      1.200     0.109    0.0148
   06/26/2005 07:15:00      3.600     0.146    0.0151
   06/26/2005 07:20:00      2.400     0.134    0.0182
   06/26/2005 07:25:00      6.000     0.062    0.0196
   06/26/2005 07:30:00      7.200     0.000    0.0259
   06/26/2005 07:35:00     12.000     0.000    0.0339
   06/26/2005 07:40:00     39.600     0.000    0.0502
   06/26/2005 07:45:00     40.800     0.000    0.1309
   06/26/2005 07:50:00     45.600     0.000    0.2184
   06/26/2005 07:55:00     34.800     0.000    0.3123
   06/26/2005 08:00:00     12.000     0.000    0.3486
   06/26/2005 08:05:00     21.600     0.000    0.2960
   06/26/2005 08:10:00     20.400     0.000    0.2950
   06/26/2005 08:15:00     14.400     0.000    0.2922
   06/26/2005 08:20:00     42.000     0.000    0.2719
   06/26/2005 08:25:00     27.600     0.000    0.3535
   06/26/2005 08:30:00     16.800     0.000    0.3651
   06/26/2005 08:35:00      7.200     0.000    0.3370
   06/26/2005 08:40:00      2.400     0.125    0.2870
   06/26/2005 08:45:00      2.400     0.119    0.2388
   06/26/2005 08:50:00      1.200     0.093    0.2055
   06/26/2005 08:55:00      1.200     0.091    0.1783
   06/26/2005 09:00:00      6.000     0.000    0.1580
   06/26/2005 09:05:00      7.200     0.000    0.1540
   06/26/2005 09:10:00      6.000     0.000    0.1536
   06/26/2005 09:15:00      2.400     0.104    0.1503
   06/26/2005 09:20:00      4.800     0.040    0.1389
   06/26/2005 09:25:00      4.800     0.036    0.1352
   06/26/2005 09:30:00      7.200     0.000    0.1320
   06/26/2005 09:35:00     15.600     0.000    0.1348
   06/26/2005 09:40:00     15.600     0.000    0.1575
   06/26/2005 09:45:00     12.000     0.000    0.1777
   06/26/2005 09:50:00     12.000     0.000    0.1850
   06/26/2005 09:55:00      4.800     0.032    0.1911
   06/26/2005 10:00:00     12.000     0.000    0.1766
   06/26/2005 10:05:00      8.400     0.000    0.1844
   06/26/2005 10:10:00      1.200     0.084    0.1811
   06/26/2005 10:15:00      2.400     0.090    0.1600
   06/26/2005 10:20:00      4.800     0.011    0.1466
   06/26/2005 10:25:00      3.600     0.058    0.1416
   06/26/2005 10:30:00      4.800     0.004    0.1347
   06/26/2005 10:35:00     15.600     0.000    0.1316
   06/26/2005 10:40:00     12.000     0.000    0.1546
   06/26/2005 10:45:00     18.000     0.000    0.1658
   06/26/2005 10:50:00     42.000     0.000    0.1915
   06/26/2005 10:55:00     16.800     0.000    0.2881
   06/26/2005 11:00:00     14.400     0.000    0.2862
   06/26/2005 11:05:00     40.800     0.000    0.2779
   06/26/2005 11:10:00     37.200     0.000    0.3618
   06/26/2005 11:15:00     46.800     0.000    0.4167
   06/26/2005 11:20:00     27.600     0.000    0.4975
   06/26/2005 11:25:00     31.200     0.000    0.4818
   06/26/2005 11:30:00     13.200     0.000    0.4878
   06/26/2005 11:35:00      1.200     0.078    0.4257
   06/26/2005 11:40:00      1.200     0.077    0.3440
   06/26/2005 11:45:00      0.000     0.000    0.2894
   06/26/2005 11:50:00      0.000     0.000    0.2475
   06/26/2005 11:55:00      0.000     0.000    0.2166
   06/26/2005 12:00:00      0.000     0.000    0.1928
   06/26/2005 12:05:00      0.000     0.000    0.1739
   06/26/2005 12:10:00      0.000     0.000    0.1585
   06/26/2005 12:15:00      0.000     0.000    0.1457
   06/26/2005 12:20:00      0.000     0.000    0.1348
   06/26/2005 12:25:00      0.000     0.000    0.1253
   06/26/2005 12:30:00      0.000     0.000    0.1171
   06/26/2005 12:35:00      0.000     0.000    0.1098
   06/26/2005 12:40:00      0.000     0.000    0.1033
   06/26/2005 12:45:00      0.000     0.000    0.0975
   06/26/2005 12:50:00      0.000     0.000    0.0922
   06/26/2005 12:55:00      0.000     0.000    0.0874
   06/26/2005 13:00:00      0.000     0.000    0.0830
   06/26/2005 13:05:00      0.000     0.000    0.0789
   06/26/2005 13:10:00      0.000     0.000    0.0752
   06/26/2005 13:15:00      0.000     0.000    0.0717
   06/26/2005 13:20:00      0.000     0.000    0.0685
   06/26/2005 13:25:00      0.000     0.000    0.0655
   06/26/2005 13:30:00      0.000     0.000    0.0628
   06/26/2005 13:35:00      0.000     0.000    0.0601
   06/26/2005 13:40:00      0.000     0.000    0.0577
   06/26/2005 13:45:00      0.000     0.000    0.0554
   06/26/2005 13:50:00      0.000     0.000    0.0532
   06/26/2005 13:55:00      0.000     0.000    0.0512
   06/26/2005 14:00:00      0.000     0.000    0.0493
   06/26/2005 14:05:00      0.000     0.000    0.0474
   06/26/2005 14:10:00      0.000     0.000    0.0457
   06/26/2005 14:15:00      0.000     0.000    0.0441
   06/26/2005 14:20:00      0.000     0.000    0.0426
   06/26/2005 14:25:00      0.000     0.000    0.0411
   06/26/2005 14:30:00      0.000     0.000    0.0397
   06/26/2005 14:35:00      0.000     0.000    0.0384
   06/26/2005 14:40:00      0.000     0.000    0.0371
   06/26/2005 14:45:00      0.000     0.000    0.0359
   06/26/2005 14:50:00      0.000     0.000    0.0347
   06/26/2005 14:55:00      0.000     0.000    0.0337
   06/26/2005 15:00:00      0.000     0.000    0.0326
   06/26/2005 15:05:00      0.000     0.000    0.0316
   06/26/2005 15:10:00      0.000     0.000    0.0306
   06/26/2005 15:15:00      0.000     0.000    0.0297
   06/26/2005 15:20:00      0.000     0.000    0.0289
   06/26/2005 15:25:00      0.000     0.000    0.0280
   06/26/2005 15:30:00      0.000     0.000    0.0272
   06/26/2005 15:35:00      0.000     0.000    0.0264
   06/26/2005 15:40:00      0.000     0.000    0.0257
   06/26/2005 15:45:00      0.000     0.000    0.0250
   06/26/2005 15:50:00      0.000     0.000    0.0243
   06/26/2005 15:55:00      0.000     0.000    0.0236
   06/26/2005 16:00:00      0.000     0.000    0.0230
   06/26/2005 16:05:00      0.000     0.000    0.0224
   06/26/2005 16:10:00      0.000     0.000    0.0218
   06/26/2005 16:15:00      0.000     0.000    0.0212
   06/26/2005 16:20:00      0.000     0.000    0.0207
   06/26/2005 16:25:00      0.000     0.000    0.0202
   06/26/2005 16:30:00      0.000     0.000    0.0197
   06/26/2005 16:35:00      0.000     0.000    0.0192
   06/26/2005 16:40:00      0.000     0.000    0.0187
   06/26/2005 16:45:00      0.000     0.000    0.0183
   06/26/2005 16:50:00      0.000     0.000    0.0178
   06/26/2005 16:55:00      0.000     0.000    0.0174
   06/26/2005 17:00:00      0.000     0.000    0.0170
  
  
  <<< Subcatchment S3 >>>
  ---------------------------------------------------
  Date        Time        Precip.    Losses    Runoff
                            mm/hr     mm/hr       CMS
  ---------------------------------------------------
   06/26/2005 03:50:00      2.400     0.487    0.0000
   06/26/2005 03:55:00     10.800     1.189    0.0000
   06/26/2005 04:00:00     14.400     0.906    0.0013
   06/26/2005 04:05:00      2.400     0.357    0.0057
   06/26/2005 04:10:00      3.600     0.425    0.0043
   06/26/2005 04:15:00     31.200     0.000    0.0044
   06/26/2005 04:20:00     24.000     0.000    0.0265
   06/26/2005 04:25:00     10.800     0.435    0.0320
   06/26/2005 04:30:00      1.200     0.194    0.0227
   06/26/2005 04:35:00      0.000     0.000    0.0126
   06/26/2005 04:40:00      0.000     0.000    0.0082
   06/26/2005 04:45:00      0.000     0.000    0.0062
   06/26/2005 04:50:00      0.000     0.000    0.0051
   06/26/2005 04:55:00      0.000     0.000    0.0044
   06/26/2005 05:00:00      0.000     0.000    0.0040
   06/26/2005 05:05:00      0.000     0.000    0.0036
   06/26/2005 05:10:00      0.000     0.000    0.0034
   06/26/2005 05:15:00      1.200     0.190    0.0032
   06/26/2005 05:20:00      0.000     0.000    0.0034
   06/26/2005 05:25:00      0.000     0.000    0.0032
   06/26/2005 05:30:00      0.000     0.000    0.0030
   06/26/2005 05:35:00      0.000     0.000    0.0028
   06/26/2005 05:40:00      1.200     0.186    0.0026
   06/26/2005 05:45:00      2.400     0.268    0.0029
   06/26/2005 05:50:00      0.000     0.000    0.0037
   06/26/2005 05:55:00      6.000     0.296    0.0033
   06/26/2005 06:00:00      0.000     0.000    0.0061
   06/26/2005 06:05:00      1.200     0.169    0.0048
   06/26/2005 06:10:00      0.000     0.000    0.0047
   06/26/2005 06:15:00      0.000     0.000    0.0040
   06/26/2005 06:20:00      0.000     0.000    0.0035
   06/26/2005 06:25:00      0.000     0.000    0.0032
   06/26/2005 06:30:00      1.200     0.165    0.0030
   06/26/2005 06:35:00      0.000     0.000    0.0032
   06/26/2005 06:40:00      0.000     0.000    0.0030
   06/26/2005 06:45:00      0.000     0.000    0.0027
   06/26/2005 06:50:00      0.000     0.000    0.0026
   06/26/2005 06:55:00      0.000     0.000    0.0024
   06/26/2005 07:00:00      4.800     0.240    0.0023
   06/26/2005 07:05:00      1.200     0.156    0.0042
   06/26/2005 07:10:00      1.200     0.152    0.0042
   06/26/2005 07:15:00      3.600     0.205    0.0041
   06/26/2005 07:20:00      2.400     0.188    0.0054
   06/26/2005 07:25:00      6.000     0.087    0.0057
   06/26/2005 07:30:00      7.200     0.000    0.0083
   06/26/2005 07:35:00     12.000     0.000    0.0112
   06/26/2005 07:40:00     39.600     0.000    0.0172
   06/26/2005 07:45:00     40.800     0.000    0.0509
   06/26/2005 07:50:00     45.600     0.000    0.0697
   06/26/2005 07:55:00     34.800     0.000    0.0875
   06/26/2005 08:00:00     12.000     0.000    0.0856
   06/26/2005 08:05:00     21.600     0.000    0.0624
   06/26/2005 08:10:00     20.400     0.000    0.0675
   06/26/2005 08:15:00     14.400     0.000    0.0694
   06/26/2005 08:20:00     42.000     0.000    0.0641
   06/26/2005 08:25:00     27.600     0.000    0.0973
   06/26/2005 08:30:00     16.800     0.000    0.0937
   06/26/2005 08:35:00      7.200     0.000    0.0814
   06/26/2005 08:40:00      2.400     0.175    0.0665
   06/26/2005 08:45:00      2.400     0.166    0.0545
   06/26/2005 08:50:00      1.200     0.130    0.0475
   06/26/2005 08:55:00      1.200     0.127    0.0415
   06/26/2005 09:00:00      6.000     0.000    0.0370
   06/26/2005 09:05:00      7.200     0.000    0.0374
   06/26/2005 09:10:00      6.000     0.000    0.0384
   06/26/2005 09:15:00      2.400     0.146    0.0374
   06/26/2005 09:20:00      4.800     0.056    0.0331
   06/26/2005 09:25:00      4.800     0.051    0.0322
   06/26/2005 09:30:00      7.200     0.000    0.0313
   06/26/2005 09:35:00     15.600     0.000    0.0326
   06/26/2005 09:40:00     15.600     0.000    0.0416
   06/26/2005 09:45:00     12.000     0.000    0.0467
   06/26/2005 09:50:00     12.000     0.000    0.0458
   06/26/2005 09:55:00      4.800     0.045    0.0458
   06/26/2005 10:00:00     12.000     0.000    0.0387
   06/26/2005 10:05:00      8.400     0.000    0.0424
   06/26/2005 10:10:00      1.200     0.118    0.0406
   06/26/2005 10:15:00      2.400     0.126    0.0328
   06/26/2005 10:20:00      4.800     0.016    0.0295
   06/26/2005 10:25:00      3.600     0.082    0.0292
   06/26/2005 10:30:00      4.800     0.006    0.0276
   06/26/2005 10:35:00     15.600     0.000    0.0274
   06/26/2005 10:40:00     12.000     0.000    0.0374
   06/26/2005 10:45:00     18.000     0.000    0.0396
   06/26/2005 10:50:00     42.000     0.000    0.0475
   06/26/2005 10:55:00     16.800     0.000    0.0816
   06/26/2005 11:00:00     14.400     0.000    0.0663
   06/26/2005 11:05:00     40.800     0.000    0.0604
   06/26/2005 11:10:00     37.200     0.000    0.0919
   06/26/2005 11:15:00     46.800     0.000    0.1021
   06/26/2005 11:20:00     27.600     0.000    0.1230
   06/26/2005 11:25:00     31.200     0.000    0.1083
   06/26/2005 11:30:00     13.200     0.000    0.1113
   06/26/2005 11:35:00      1.200     0.110    0.0907
   06/26/2005 11:40:00      1.200     0.107    0.0692
   06/26/2005 11:45:00      0.000     0.000    0.0580
   06/26/2005 11:50:00      0.000     0.000    0.0495
   06/26/2005 11:55:00      0.000     0.000    0.0432
   06/26/2005 12:00:00      0.000     0.000    0.0382
   06/26/2005 12:05:00      0.000     0.000    0.0340
   06/26/2005 12:10:00      0.000     0.000    0.0306
   06/26/2005 12:15:00      0.000     0.000    0.0276
   06/26/2005 12:20:00      0.000     0.000    0.0250
   06/26/2005 12:25:00      0.000     0.000    0.0228
   06/26/2005 12:30:00      0.000     0.000    0.0208
   06/26/2005 12:35:00      0.000     0.000    0.0191
   06/26/2005 12:40:00      0.000     0.000    0.0176
   06/26/2005 12:45:00      0.000     0.000    0.0162
   06/26/2005 12:50:00      0.000     0.000    0.0150
   06/26/2005 12:55:00      0.000     0.000    0.0139
   06/26/2005 13:00:00      0.000     0.000    0.0129
   06/26/2005 13:05:00      0.000     0.000    0.0120
   06/26/2005 13:10:00      0.000     0.000    0.0112
   06/26/2005 13:15:00      0.000     0.000    0.0105
   06/26/2005 13:20:00      0.000     0.000    0.0098
   06/26/2005 13:25:00      0.000     0.000    0.0092
   06/26/2005 13:30:00      0.000     0.000    0.0087
   06/26/2005 13:35:00      0.000     0.000    0.0082
   06/26/2005 13:40:00      0.000     0.000    0.0077
   06/26/2005 13:45:00      0.000     0.000    0.0073
   06/26/2005 13:50:00      0.000     0.000    0.0069
   06/26/2005 13:55:00      0.000     0.000    0.0065
   06/26/2005 14:00:00      0.000     0.000    0.0062
   06/26/2005 14:05:00      0.000     0.000    0.0058
   06/26/2005 14:10:00      0.000     0.000    0.0055
   06/26/2005 14:15:00      0.000     0.000    0.0053
   06/26/2005 14:20:00      0.000     0.000    0.0050
   06/26/2005 14:25:00      0.000     0.000    0.0048
   06/26/2005 14:30:00      0.000     0.000    0.0046
   06/26/2005 14:35:00      0.000     0.000    0.0043
   06/26/2005 14:40:00      0.000     0.000    0.0041
   06/26/2005 14:45:00      0.000     0.000    0.0040
   06/26/2005 14:50:00      0.000     0.000    0.0038
   06/26/2005 14:55:00      0.000     0.000    0.0036
   06/26/2005 15:00:00      0.000     0.000    0.0035
   06/26/2005 15:05:00      0.000     0.000    0.0033
   06/26/2005 15:10:00      0.000     0.000    0.0032
   06/26/2005 15:15:00      0.000     0.000    0.0031
   06/26/2005 15:20:00      0.000     0.000    0.0029
   06/26/2005 15:25:00      0.000     0.000    0.0028
   06/26/2005 15:30:00      0.000     0.000    0.0027
   06/26/2005 15:35:00      0.000     0.000    0.0026
   06/26/2005 15:40:00      0.000     0.000    0.0025
   06/26/2005 15:45:00      0.000     0.000    0.0024
   06/26/2005 15:50:00      0.000     0.000    0.0023
   06/26/2005 15:55:00      0.000     0.000    0.0023
   06/26/2005 16:00:00      0.000     0.000    0.0022
   06/26/2005 16:05:00      0.000     0.000    0.0021
   06/26/2005 16:10:00      0.000     0.000    0.0020
   06/26/2005 16:15:00      0.000     0.000    0.0020
   06/26/2005 16:20:00      0.000     0.000    0.0019
   06/26/2005 16:25:00      0.000     0.000    0.0018
   06/26/2005 16:30:00      0.000     0.000    0.0018
   06/26/2005 16:35:00      0.000     0.000    0.0017
   06/26/2005 16:40:00      0.000     0.000    0.0017
   06/26/2005 16:45:00      0.000     0.000    0.0016
   06/26/2005 16:50:00      0.000     0.000    0.0016
   06/26/2005 16:55:00      0.000     0.000    0.0015
   06/26/2005 17:00:00      0.000     0.000    0.0015
  
  
  <<< Subcatchment S4 >>>
  ---------------------------------------------------
  Date        Time        Precip.    Losses    Runoff
                            mm/hr     mm/hr       CMS
  ---------------------------------------------------
   06/26/2005 03:50:00      2.400     0.556    0.0000
   06/26/2005 03:55:00     10.800     1.359    0.0000
   06/26/2005 04:00:00     14.400     1.036    0.0016
   06/26/2005 04:05:00      2.400     0.407    0.0073
   06/26/2005 04:10:00      3.600     0.486    0.0072
   06/26/2005 04:15:00     31.200     0.000    0.0082
   06/26/2005 04:20:00     24.000     0.000    0.0422
   06/26/2005 04:25:00     10.800     0.497    0.0621
   06/26/2005 04:30:00      1.200     0.222    0.0535
   06/26/2005 04:35:00      0.000     0.000    0.0354
   06/26/2005 04:40:00      0.000     0.000    0.0245
   06/26/2005 04:45:00      0.000     0.000    0.0182
   06/26/2005 04:50:00      0.000     0.000    0.0143
   06/26/2005 04:55:00      0.000     0.000    0.0117
   06/26/2005 05:00:00      0.000     0.000    0.0099
   06/26/2005 05:05:00      0.000     0.000    0.0087
   06/26/2005 05:10:00      0.000     0.000    0.0077
   06/26/2005 05:15:00      1.200     0.217    0.0070
   06/26/2005 05:20:00      0.000     0.000    0.0073
   06/26/2005 05:25:00      0.000     0.000    0.0067
   06/26/2005 05:30:00      0.000     0.000    0.0062
   06/26/2005 05:35:00      0.000     0.000    0.0058
   06/26/2005 05:40:00      1.200     0.212    0.0055
   06/26/2005 05:45:00      2.400     0.307    0.0059
   06/26/2005 05:50:00      0.000     0.000    0.0071
   06/26/2005 05:55:00      6.000     0.338    0.0066
   06/26/2005 06:00:00      0.000     0.000    0.0107
   06/26/2005 06:05:00      1.200     0.193    0.0094
   06/26/2005 06:10:00      0.000     0.000    0.0094
   06/26/2005 06:15:00      0.000     0.000    0.0085
   06/26/2005 06:20:00      0.000     0.000    0.0078
   06/26/2005 06:25:00      0.000     0.000    0.0072
   06/26/2005 06:30:00      1.200     0.188    0.0068
   06/26/2005 06:35:00      0.000     0.000    0.0072
   06/26/2005 06:40:00      0.000     0.000    0.0068
   06/26/2005 06:45:00      0.000     0.000    0.0064
   06/26/2005 06:50:00      0.000     0.000    0.0061
   06/26/2005 06:55:00      0.000     0.000    0.0059
   06/26/2005 07:00:00      4.800     0.274    0.0057
   06/26/2005 07:05:00      1.200     0.178    0.0086
   06/26/2005 07:10:00      1.200     0.174    0.0088
   06/26/2005 07:15:00      3.600     0.234    0.0089
   06/26/2005 07:20:00      2.400     0.215    0.0111
   06/26/2005 07:25:00      6.000     0.099    0.0119
   06/26/2005 07:30:00      7.200     0.000    0.0162
   06/26/2005 07:35:00     12.000     0.000    0.0215
   06/26/2005 07:40:00     39.600     0.000    0.0323
   06/26/2005 07:45:00     40.800     0.000    0.0885
   06/26/2005 07:50:00     45.600     0.000    0.1349
   06/26/2005 07:55:00     34.800     0.000    0.1770
   06/26/2005 08:00:00     12.000     0.000    0.1803
   06/26/2005 08:05:00     21.600     0.000    0.1389
   06/26/2005 08:10:00     20.400     0.000    0.1422
   06/26/2005 08:15:00     14.400     0.000    0.1448
   06/26/2005 08:20:00     42.000     0.000    0.1371
   06/26/2005 08:25:00     27.600     0.000    0.1944
   06/26/2005 08:30:00     16.800     0.000    0.1996
   06/26/2005 08:35:00      7.200     0.000    0.1833
   06/26/2005 08:40:00      2.400     0.200    0.1584
   06/26/2005 08:45:00      2.400     0.190    0.1371
   06/26/2005 08:50:00      1.200     0.149    0.1249
   06/26/2005 08:55:00      1.200     0.145    0.1150
   06/26/2005 09:00:00      6.000     0.000    0.1080
   06/26/2005 09:05:00      7.200     0.000    0.1096
   06/26/2005 09:10:00      6.000     0.000    0.1125
   06/26/2005 09:15:00      2.400     0.167    0.1127
   06/26/2005 09:20:00      4.800     0.065    0.1072
   06/26/2005 09:25:00      4.800     0.058    0.1065
   06/26/2005 09:30:00      7.200     0.000    0.1058
   06/26/2005 09:35:00     15.600     0.000    0.1087
   06/26/2005 09:40:00     15.600     0.000    0.1250
   06/26/2005 09:45:00     12.000     0.000    0.1380
   06/26/2005 09:50:00     12.000     0.000    0.1409
   06/26/2005 09:55:00      4.800     0.052    0.1435
   06/26/2005 10:00:00     12.000     0.000    0.1327
   06/26/2005 10:05:00      8.400     0.000    0.1387
   06/26/2005 10:10:00      1.200     0.134    0.1368
   06/26/2005 10:15:00      2.400     0.144    0.1234
   06/26/2005 10:20:00      4.800     0.018    0.1163
   06/26/2005 10:25:00      3.600     0.093    0.1148
   06/26/2005 10:30:00      4.800     0.007    0.1115
   06/26/2005 10:35:00     15.600     0.000    0.1107
   06/26/2005 10:40:00     12.000     0.000    0.1274
   06/26/2005 10:45:00     18.000     0.000    0.1344
   06/26/2005 10:50:00     42.000     0.000    0.1510
   06/26/2005 10:55:00     16.800     0.000    0.2154
   06/26/2005 11:00:00     14.400     0.000    0.2024
   06/26/2005 11:05:00     40.800     0.000    0.1931
   06/26/2005 11:10:00     37.200     0.000    0.2487
   06/26/2005 11:15:00     46.800     0.000    0.2778
   06/26/2005 11:20:00     27.600     0.000    0.3239
   06/26/2005 11:25:00     31.200     0.000    0.3068
   06/26/2005 11:30:00     13.200     0.000    0.3131
   06/26/2005 11:35:00      1.200     0.126    0.2786
   06/26/2005 11:40:00      1.200     0.123    0.2371
   06/26/2005 11:45:00      0.000     0.000    0.2136
   06/26/2005 11:50:00      0.000     0.000    0.1957
   06/26/2005 11:55:00      0.000     0.000    0.1824
   06/26/2005 12:00:00      0.000     0.000    0.1717
   06/26/2005 12:05:00      0.000     0.000    0.1626
   06/26/2005 12:10:00      0.000     0.000    0.1547
   06/26/2005 12:15:00      0.000     0.000    0.1475
   06/26/2005 12:20:00      0.000     0.000    0.1410
   06/26/2005 12:25:00      0.000     0.000    0.1350
   06/26/2005 12:30:00      0.000     0.000    0.1294
   06/26/2005 12:35:00      0.000     0.000    0.1242
   06/26/2005 12:40:00      0.000     0.000    0.1194
   06/26/2005 12:45:00      0.000     0.000    0.1148
   06/26/2005 12:50:00      0.000     0.000    0.1105
   06/26/2005 12:55:00      0.000     0.000    0.1064
   06/26/2005 13:00:00      0.000     0.000    0.1026
   06/26/2005 13:05:00      0.000     0.000    0.0989
   06/26/2005 13:10:00      0.000     0.000    0.0955
   06/26/2005 13:15:00      0.000     0.000    0.0922
   06/26/2005 13:20:00      0.000     0.000    0.0891
   06/26/2005 13:25:00      0.000     0.000    0.0861
   06/26/2005 13:30:00      0.000     0.000    0.0833
   06/26/2005 13:35:00      0.000     0.000    0.0806
   06/26/2005 13:40:00      0.000     0.000    0.0780
   06/26/2005 13:45:00      0.000     0.000    0.0755
   06/26/2005 13:50:00      0.000     0.000    0.0732
   06/26/2005 13:55:00      0.000     0.000    0.0709
   06/26/2005 14:00:00      0.000     0.000    0.0688
   06/26/2005 14:05:00      0.000     0.000    0.0667
   06/26/2005 14:10:00      0.000     0.000    0.0648
   06/26/2005 14:15:00      0.000     0.000    0.0629
   06/26/2005 14:20:00      0.000     0.000    0.0611
   06/26/2005 14:25:00      0.000     0.000    0.0593
   06/26/2005 14:30:00      0.000     0.000    0.0576
   06/26/2005 14:35:00      0.000     0.000    0.0560
   06/26/2005 14:40:00      0.000     0.000    0.0545
   06/26/2005 14:45:00      0.000     0.000    0.0530
   06/26/2005 14:50:00      0.000     0.000    0.0516
   06/26/2005 14:55:00      0.000     0.000    0.0502
   06/26/2005 15:00:00      0.000     0.000    0.0489
   06/26/2005 15:05:00      0.000     0.000    0.0476
   06/26/2005 15:10:00      0.000     0.000    0.0464
   06/26/2005 15:15:00      0.000     0.000    0.0452
   06/26/2005 15:20:00      0.000     0.000    0.0440
   06/26/2005 15:25:00      0.000     0.000    0.0429
   06/26/2005 15:30:00      0.000     0.000    0.0419
   06/26/2005 15:35:00      0.000     0.000    0.0408
   06/26/2005 15:40:00      0.000     0.000    0.0398
   06/26/2005 15:45:00      0.000     0.000    0.0389
   06/26/2005 15:50:00      0.000     0.000    0.0380
   06/26/2005 15:55:00      0.000     0.000    0.0371
   06/26/2005 16:00:00      0.000     0.000    0.0362
   06/26/2005 16:05:00      0.000     0.000    0.0354
   06/26/2005 16:10:00      0.000     0.000    0.0345
   06/26/2005 16:15:00      0.000     0.000    0.0338
   06/26/2005 16:20:00      0.000     0.000    0.0330
   06/26/2005 16:25:00      0.000     0.000    0.0323
   06/26/2005 16:30:00      0.000     0.000    0.0315
   06/26/2005 16:35:00      0.000     0.000    0.0309
   06/26/2005 16:40:00      0.000     0.000    0.0302
   06/26/2005 16:45:00      0.000     0.000    0.0295
   06/26/2005 16:50:00      0.000     0.000    0.0289
   06/26/2005 16:55:00      0.000     0.000    0.0283
   06/26/2005 17:00:00      0.000     0.000    0.0277
  
  
  <<< Subcatchment S5 >>>
  ---------------------------------------------------
  Date        Time        Precip.    Losses    Runoff
                            mm/hr     mm/hr       CMS
  ---------------------------------------------------
   06/26/2005 03:50:00      2.400     0.556    0.0000
   06/26/2005 03:55:00     10.800     1.359    0.0000
   06/26/2005 04:00:00     14.400     1.036    0.0016
   06/26/2005 04:05:00      2.400     0.407    0.0078
   06/26/2005 04:10:00      3.600     0.486    0.0082
   06/26/2005 04:15:00     31.200     0.000    0.0098
   06/26/2005 04:20:00     24.000     0.000    0.0482
   06/26/2005 04:25:00     10.800     0.497    0.0757
   06/26/2005 04:30:00      1.200     0.222    0.0709
   06/26/2005 04:35:00      0.000     0.000    0.0513
   06/26/2005 04:40:00      0.000     0.000    0.0376
   06/26/2005 04:45:00      0.000     0.000    0.0288
   06/26/2005 04:50:00      0.000     0.000    0.0230
   06/26/2005 04:55:00      0.000     0.000    0.0189
   06/26/2005 05:00:00      0.000     0.000    0.0159
   06/26/2005 05:05:00      0.000     0.000    0.0137
   06/26/2005 05:10:00      0.000     0.000    0.0120
   06/26/2005 05:15:00      1.200     0.217    0.0107
   06/26/2005 05:20:00      0.000     0.000    0.0107
   06/26/2005 05:25:00      0.000     0.000    0.0097
   06/26/2005 05:30:00      0.000     0.000    0.0089
   06/26/2005 05:35:00      0.000     0.000    0.0082
   06/26/2005 05:40:00      1.200     0.212    0.0076
   06/26/2005 05:45:00      2.400     0.307    0.0080
   06/26/2005 05:50:00      0.000     0.000    0.0094
   06/26/2005 05:55:00      6.000     0.338    0.0087
   06/26/2005 06:00:00      0.000     0.000    0.0135
   06/26/2005 06:05:00      1.200     0.193    0.0121
   06/26/2005 06:10:00      0.000     0.000    0.0120
   06/26/2005 06:15:00      0.000     0.000    0.0109
   06/26/2005 06:20:00      0.000     0.000    0.0101
   06/26/2005 06:25:00      0.000     0.000    0.0093
   06/26/2005 06:30:00      1.200     0.188    0.0088
   06/26/2005 06:35:00      0.000     0.000    0.0092
   06/26/2005 06:40:00      0.000     0.000    0.0086
   06/26/2005 06:45:00      0.000     0.000    0.0081
   06/26/2005 06:50:00      0.000     0.000    0.0078
   06/26/2005 06:55:00      0.000     0.000    0.0074
   06/26/2005 07:00:00      4.800     0.274    0.0071
   06/26/2005 07:05:00      1.200     0.178    0.0105
   06/26/2005 07:10:00      1.200     0.174    0.0108
   06/26/2005 07:15:00      3.600     0.234    0.0110
   06/26/2005 07:20:00      2.400     0.215    0.0135
   06/26/2005 07:25:00      6.000     0.099    0.0146
   06/26/2005 07:30:00      7.200     0.000    0.0197
   06/26/2005 07:35:00     12.000     0.000    0.0260
   06/26/2005 07:40:00     39.600     0.000    0.0389
   06/26/2005 07:45:00     40.800     0.000    0.1047
   06/26/2005 07:50:00     45.600     0.000    0.1664
   06/26/2005 07:55:00     34.800     0.000    0.2256
   06/26/2005 08:00:00     12.000     0.000    0.2370
   06/26/2005 08:05:00     21.600     0.000    0.1883
   06/26/2005 08:10:00     20.400     0.000    0.1890
   06/26/2005 08:15:00     14.400     0.000    0.1897
   06/26/2005 08:20:00     42.000     0.000    0.1784
   06/26/2005 08:25:00     27.600     0.000    0.2453
   06/26/2005 08:30:00     16.800     0.000    0.2539
   06/26/2005 08:35:00      7.200     0.000    0.2347
   06/26/2005 08:40:00      2.400     0.200    0.2027
   06/26/2005 08:45:00      2.400     0.190    0.1743
   06/26/2005 08:50:00      1.200     0.149    0.1572
   06/26/2005 08:55:00      1.200     0.145    0.1436
   06/26/2005 09:00:00      6.000     0.000    0.1341
   06/26/2005 09:05:00      7.200     0.000    0.1356
   06/26/2005 09:10:00      6.000     0.000    0.1390
   06/26/2005 09:15:00      2.400     0.167    0.1395
   06/26/2005 09:20:00      4.800     0.065    0.1334
   06/26/2005 09:25:00      4.800     0.058    0.1329
   06/26/2005 09:30:00      7.200     0.000    0.1324
   06/26/2005 09:35:00     15.600     0.000    0.1364
   06/26/2005 09:40:00     15.600     0.000    0.1562
   06/26/2005 09:45:00     12.000     0.000    0.1730
   06/26/2005 09:50:00     12.000     0.000    0.1786
   06/26/2005 09:55:00      4.800     0.052    0.1834
   06/26/2005 10:00:00     12.000     0.000    0.1719
   06/26/2005 10:05:00      8.400     0.000    0.1795
   06/26/2005 10:10:00      1.200     0.134    0.1779
   06/26/2005 10:15:00      2.400     0.144    0.1623
   06/26/2005 10:20:00      4.800     0.018    0.1536
   06/26/2005 10:25:00      3.600     0.093    0.1516
   06/26/2005 10:30:00      4.800     0.007    0.1478
   06/26/2005 10:35:00     15.600     0.000    0.1469
   06/26/2005 10:40:00     12.000     0.000    0.1669
   06/26/2005 10:45:00     18.000     0.000    0.1764
   06/26/2005 10:50:00     42.000     0.000    0.1975
   06/26/2005 10:55:00     16.800     0.000    0.2761
   06/26/2005 11:00:00     14.400     0.000    0.2675
   06/26/2005 11:05:00     40.800     0.000    0.2586
   06/26/2005 11:10:00     37.200     0.000    0.3263
   06/26/2005 11:15:00     46.800     0.000    0.3660
   06/26/2005 11:20:00     27.600     0.000    0.4261
   06/26/2005 11:25:00     31.200     0.000    0.4099
   06/26/2005 11:30:00     13.200     0.000    0.4177
   06/26/2005 11:35:00      1.200     0.126    0.3750
   06/26/2005 11:40:00      1.200     0.123    0.3215
   06/26/2005 11:45:00      0.000     0.000    0.2897
   06/26/2005 11:50:00      0.000     0.000    0.2658
   06/26/2005 11:55:00      0.000     0.000    0.2484
   06/26/2005 12:00:00      0.000     0.000    0.2347
   06/26/2005 12:05:00      0.000     0.000    0.2235
   06/26/2005 12:10:00      0.000     0.000    0.2138
   06/26/2005 12:15:00      0.000     0.000    0.2053
   06/26/2005 12:20:00      0.000     0.000    0.1976
   06/26/2005 12:25:00      0.000     0.000    0.1905
   06/26/2005 12:30:00      0.000     0.000    0.1841
   06/26/2005 12:35:00      0.000     0.000    0.1780
   06/26/2005 12:40:00      0.000     0.000    0.1723
   06/26/2005 12:45:00      0.000     0.000    0.1670
   06/26/2005 12:50:00      0.000     0.000    0.1619
   06/26/2005 12:55:00      0.000     0.000    0.1571
   06/26/2005 13:00:00      0.000     0.000    0.1526
   06/26/2005 13:05:00      0.000     0.000    0.1482
   06/26/2005 13:10:00      0.000     0.000    0.1440
   06/26/2005 13:15:00      0.000     0.000    0.1401
   06/26/2005 13:20:00      0.000     0.000    0.1362
   06/26/2005 13:25:00      0.000     0.000    0.1326
   06/26/2005 13:30:00      0.000     0.000    0.1291
   06/26/2005 13:35:00      0.000     0.000    0.1257
   06/26/2005 13:40:00      0.000     0.000    0.1224
   06/26/2005 13:45:00      0.000     0.000    0.1193
   06/26/2005 13:50:00      0.000     0.000    0.1163
   06/26/2005 13:55:00      0.000     0.000    0.1134
   06/26/2005 14:00:00      0.000     0.000    0.1106
   06/26/2005 14:05:00      0.000     0.000    0.1079
   06/26/2005 14:10:00      0.000     0.000    0.1053
   06/26/2005 14:15:00      0.000     0.000    0.1028
   06/26/2005 14:20:00      0.000     0.000    0.1004
   06/26/2005 14:25:00      0.000     0.000    0.0980
   06/26/2005 14:30:00      0.000     0.000    0.0957
   06/26/2005 14:35:00      0.000     0.000    0.0935
   06/26/2005 14:40:00      0.000     0.000    0.0914
   06/26/2005 14:45:00      0.000     0.000    0.0894
   06/26/2005 14:50:00      0.000     0.000    0.0874
   06/26/2005 14:55:00      0.000     0.000    0.0854
   06/26/2005 15:00:00      0.000     0.000    0.0836
   06/26/2005 15:05:00      0.000     0.000    0.0818
   06/26/2005 15:10:00      0.000     0.000    0.0800
   06/26/2005 15:15:00      0.000     0.000    0.0783
   06/26/2005 15:20:00      0.000     0.000    0.0766
   06/26/2005 15:25:00      0.000     0.000    0.0750
   06/26/2005 15:30:00      0.000     0.000    0.0735
   06/26/2005 15:35:00      0.000     0.000    0.0720
   06/26/2005 15:40:00      0.000     0.000    0.0705
   06/26/2005 15:45:00      0.000     0.000    0.0691
   06/26/2005 15:50:00      0.000     0.000    0.0677
   06/26/2005 15:55:00      0.000     0.000    0.0663
   06/26/2005 16:00:00      0.000     0.000    0.0650
   06/26/2005 16:05:00      0.000     0.000    0.0637
   06/26/2005 16:10:00      0.000     0.000    0.0625
   06/26/2005 16:15:00      0.000     0.000    0.0613
   06/26/2005 16:20:00      0.000     0.000    0.0601
   06/26/2005 16:25:00      0.000     0.000    0.0590
   06/26/2005 16:30:00      0.000     0.000    0.0579
   06/26/2005 16:35:00      0.000     0.000    0.0568
   06/26/2005 16:40:00      0.000     0.000    0.0557
   06/26/2005 16:45:00      0.000     0.000    0.0547
   06/26/2005 16:50:00      0.000     0.000    0.0537
   06/26/2005 16:55:00      0.000     0.000    0.0527
   06/26/2005 17:00:00      0.000     0.000    0.0518
  
  
  <<< Subcatchment S6 >>>
  ---------------------------------------------------
  Date        Time        Precip.    Losses    Runoff
                            mm/hr     mm/hr       CMS
  ---------------------------------------------------
   06/26/2005 03:50:00      2.400     0.278    0.0000
   06/26/2005 03:55:00     10.800     0.680    0.0000
   06/26/2005 04:00:00     14.400     0.518    0.0017
   06/26/2005 04:05:00      2.400     0.204    0.0084
   06/26/2005 04:10:00      3.600     0.243    0.0097
   06/26/2005 04:15:00     31.200     0.000    0.0122
   06/26/2005 04:20:00     24.000     0.000    0.0575
   06/26/2005 04:25:00     10.800     0.248    0.0993
   06/26/2005 04:30:00      1.200     0.111    0.1062
   06/26/2005 04:35:00      0.000     0.000    0.0892
   06/26/2005 04:40:00      0.000     0.000    0.0738
   06/26/2005 04:45:00      0.000     0.000    0.0620
   06/26/2005 04:50:00      0.000     0.000    0.0528
   06/26/2005 04:55:00      0.000     0.000    0.0455
   06/26/2005 05:00:00      0.000     0.000    0.0396
   06/26/2005 05:05:00      0.000     0.000    0.0348
   06/26/2005 05:10:00      0.000     0.000    0.0308
   06/26/2005 05:15:00      1.200     0.109    0.0275
   06/26/2005 05:20:00      0.000     0.000    0.0264
   06/26/2005 05:25:00      0.000     0.000    0.0238
   06/26/2005 05:30:00      0.000     0.000    0.0216
   06/26/2005 05:35:00      0.000     0.000    0.0196
   06/26/2005 05:40:00      1.200     0.106    0.0180
   06/26/2005 05:45:00      2.400     0.153    0.0180
   06/26/2005 05:50:00      0.000     0.000    0.0195
   06/26/2005 05:55:00      6.000     0.169    0.0179
   06/26/2005 06:00:00      0.000     0.000    0.0243
   06/26/2005 06:05:00      1.200     0.096    0.0221
   06/26/2005 06:10:00      0.000     0.000    0.0217
   06/26/2005 06:15:00      0.000     0.000    0.0199
   06/26/2005 06:20:00      0.000     0.000    0.0183
   06/26/2005 06:25:00      0.000     0.000    0.0169
   06/26/2005 06:30:00      1.200     0.094    0.0156
   06/26/2005 06:35:00      0.000     0.000    0.0159
   06/26/2005 06:40:00      0.000     0.000    0.0148
   06/26/2005 06:45:00      0.000     0.000    0.0138
   06/26/2005 06:50:00      0.000     0.000    0.0129
   06/26/2005 06:55:00      0.000     0.000    0.0121
   06/26/2005 07:00:00      4.800     0.137    0.0114
   06/26/2005 07:05:00      1.200     0.089    0.0159
   06/26/2005 07:10:00      1.200     0.087    0.0162
   06/26/2005 07:15:00      3.600     0.117    0.0164
   06/26/2005 07:20:00      2.400     0.107    0.0196
   06/26/2005 07:25:00      6.000     0.050    0.0211
   06/26/2005 07:30:00      7.200     0.000    0.0277
   06/26/2005 07:35:00     12.000     0.000    0.0361
   06/26/2005 07:40:00     39.600     0.000    0.0531
   06/26/2005 07:45:00     40.800     0.000    0.1368
   06/26/2005 07:50:00     45.600     0.000    0.2297
   06/26/2005 07:55:00     34.800     0.000    0.3315
   06/26/2005 08:00:00     12.000     0.000    0.3747
   06/26/2005 08:05:00     21.600     0.000    0.3233
   06/26/2005 08:10:00     20.400     0.000    0.3232
   06/26/2005 08:15:00     14.400     0.000    0.3203
   06/26/2005 08:20:00     42.000     0.000    0.2984
   06/26/2005 08:25:00     27.600     0.000    0.3836
   06/26/2005 08:30:00     16.800     0.000    0.3959
   06/26/2005 08:35:00      7.200     0.000    0.3657
   06/26/2005 08:40:00      2.400     0.100    0.3114
   06/26/2005 08:45:00      2.400     0.095    0.2580
   06/26/2005 08:50:00      1.200     0.074    0.2202
   06/26/2005 08:55:00      1.200     0.073    0.1890
   06/26/2005 09:00:00      6.000     0.000    0.1654
   06/26/2005 09:05:00      7.200     0.000    0.1595
   06/26/2005 09:10:00      6.000     0.000    0.1577
   06/26/2005 09:15:00      2.400     0.083    0.1531
   06/26/2005 09:20:00      4.800     0.032    0.1401
   06/26/2005 09:25:00      4.800     0.029    0.1353
   06/26/2005 09:30:00      7.200     0.000    0.1313
   06/26/2005 09:35:00     15.600     0.000    0.1336
   06/26/2005 09:40:00     15.600     0.000    0.1568
   06/26/2005 09:45:00     12.000     0.000    0.1776
   06/26/2005 09:50:00     12.000     0.000    0.1851
   06/26/2005 09:55:00      4.800     0.026    0.1914
   06/26/2005 10:00:00     12.000     0.000    0.1763
   06/26/2005 10:05:00      8.400     0.000    0.1842
   06/26/2005 10:10:00      1.200     0.067    0.1806
   06/26/2005 10:15:00      2.400     0.072    0.1582
   06/26/2005 10:20:00      4.800     0.009    0.1438
   06/26/2005 10:25:00      3.600     0.047    0.1382
   06/26/2005 10:30:00      4.800     0.003    0.1305
   06/26/2005 10:35:00     15.600     0.000    0.1270
   06/26/2005 10:40:00     12.000     0.000    0.1507
   06/26/2005 10:45:00     18.000     0.000    0.1622
   06/26/2005 10:50:00     42.000     0.000    0.1889
   06/26/2005 10:55:00     16.800     0.000    0.2894
   06/26/2005 11:00:00     14.400     0.000    0.2892
   06/26/2005 11:05:00     40.800     0.000    0.2815
   06/26/2005 11:10:00     37.200     0.000    0.3694
   06/26/2005 11:15:00     46.800     0.000    0.4281
   06/26/2005 11:20:00     27.600     0.000    0.5142
   06/26/2005 11:25:00     31.200     0.000    0.4998
   06/26/2005 11:30:00     13.200     0.000    0.5064
   06/26/2005 11:35:00      1.200     0.063    0.4405
   06/26/2005 11:40:00      1.200     0.061    0.3524
   06/26/2005 11:45:00      0.000     0.000    0.2922
   06/26/2005 11:50:00      0.000     0.000    0.2455
   06/26/2005 11:55:00      0.000     0.000    0.2108
   06/26/2005 12:00:00      0.000     0.000    0.1842
   06/26/2005 12:05:00      0.000     0.000    0.1631
   06/26/2005 12:10:00      0.000     0.000    0.1461
   06/26/2005 12:15:00      0.000     0.000    0.1320
   06/26/2005 12:20:00      0.000     0.000    0.1202
   06/26/2005 12:25:00      0.000     0.000    0.1101
   06/26/2005 12:30:00      0.000     0.000    0.1014
   06/26/2005 12:35:00      0.000     0.000    0.0939
   06/26/2005 12:40:00      0.000     0.000    0.0872
   06/26/2005 12:45:00      0.000     0.000    0.0813
   06/26/2005 12:50:00      0.000     0.000    0.0760
   06/26/2005 12:55:00      0.000     0.000    0.0713
   06/26/2005 13:00:00      0.000     0.000    0.0670
   06/26/2005 13:05:00      0.000     0.000    0.0632
   06/26/2005 13:10:00      0.000     0.000    0.0596
   06/26/2005 13:15:00      0.000     0.000    0.0564
   06/26/2005 13:20:00      0.000     0.000    0.0534
   06/26/2005 13:25:00      0.000     0.000    0.0507
   06/26/2005 13:30:00      0.000     0.000    0.0482
   06/26/2005 13:35:00      0.000     0.000    0.0459
   06/26/2005 13:40:00      0.000     0.000    0.0437
   06/26/2005 13:45:00      0.000     0.000    0.0417
   06/26/2005 13:50:00      0.000     0.000    0.0398
   06/26/2005 13:55:00      0.000     0.000    0.0380
   06/26/2005 14:00:00      0.000     0.000    0.0364
   06/26/2005 14:05:00      0.000     0.000    0.0349
   06/26/2005 14:10:00      0.000     0.000    0.0334
   06/26/2005 14:15:00      0.000     0.000    0.0321
   06/26/2005 14:20:00      0.000     0.000    0.0308
   06/26/2005 14:25:00      0.000     0.000    0.0296
   06/26/2005 14:30:00      0.000     0.000    0.0284
   06/26/2005 14:35:00      0.000     0.000    0.0274
   06/26/2005 14:40:00      0.000     0.000    0.0263
   06/26/2005 14:45:00      0.000     0.000    0.0254
   06/26/2005 14:50:00      0.000     0.000    0.0245
   06/26/2005 14:55:00      0.000     0.000    0.0236
   06/26/2005 15:00:00      0.000     0.000    0.0228
   06/26/2005 15:05:00      0.000     0.000    0.0220
   06/26/2005 15:10:00      0.000     0.000    0.0213
   06/26/2005 15:15:00      0.000     0.000    0.0205
   06/26/2005 15:20:00      0.000     0.000    0.0199
   06/26/2005 15:25:00      0.000     0.000    0.0192
   06/26/2005 15:30:00      0.000     0.000    0.0186
   06/26/2005 15:35:00      0.000     0.000    0.0180
   06/26/2005 15:40:00      0.000     0.000    0.0175
   06/26/2005 15:45:00      0.000     0.000    0.0169
   06/26/2005 15:50:00      0.000     0.000    0.0164
   06/26/2005 15:55:00      0.000     0.000    0.0159
   06/26/2005 16:00:00      0.000     0.000    0.0155
   06/26/2005 16:05:00      0.000     0.000    0.0150
   06/26/2005 16:10:00      0.000     0.000    0.0146
   06/26/2005 16:15:00      0.000     0.000    0.0142
   06/26/2005 16:20:00      0.000     0.000    0.0138
   06/26/2005 16:25:00      0.000     0.000    0.0134
   06/26/2005 16:30:00      0.000     0.000    0.0130
   06/26/2005 16:35:00      0.000     0.000    0.0127
   06/26/2005 16:40:00      0.000     0.000    0.0123
   06/26/2005 16:45:00      0.000     0.000    0.0120
   06/26/2005 16:50:00      0.000     0.000    0.0117
   06/26/2005 16:55:00      0.000     0.000    0.0114
   06/26/2005 17:00:00      0.000     0.000    0.0111
  
  
  <<< Subcatchment S7 >>>
  ---------------------------------------------------
  Date        Time        Precip.    Losses    Runoff
[...]
   06/26/2005 04:55:00      0.052     1.154     0.104     0.048
   06/26/2005 05:00:00      0.046     1.112     0.097     0.043
   06/26/2005 05:05:00      0.041     1.076     0.091     0.040
   06/26/2005 05:10:00      0.036     1.041     0.086     0.036
   06/26/2005 05:15:00      0.032     1.004     0.082     0.034
   06/26/2005 05:20:00      0.030     0.987     0.079     0.032
   06/26/2005 05:25:00      0.028     0.960     0.077     0.031
   06/26/2005 05:30:00      0.026     0.929     0.074     0.029
   06/26/2005 05:35:00      0.023     0.903     0.071     0.027
   06/26/2005 05:40:00      0.021     0.880     0.068     0.026
   06/26/2005 05:45:00      0.021     0.876     0.067     0.025
   06/26/2005 05:50:00      0.022     0.894     0.068     0.025
   06/26/2005 05:55:00      0.021     0.880     0.068     0.026
   06/26/2005 06:00:00      0.025     0.928     0.072     0.028
   06/26/2005 06:05:00      0.026     0.925     0.075     0.030
   06/26/2005 06:10:00      0.025     0.898     0.074     0.029
   06/26/2005 06:15:00      0.023     0.878     0.072     0.028
   06/26/2005 06:20:00      0.022     0.855     0.070     0.027
   06/26/2005 06:25:00      0.020     0.837     0.067     0.025
   06/26/2005 06:30:00      0.019     0.821     0.065     0.024
   06/26/2005 06:35:00      0.018     0.821     0.064     0.024
   06/26/2005 06:40:00      0.018     0.812     0.063     0.023
   06/26/2005 06:45:00      0.017     0.791     0.062     0.022
   06/26/2005 06:50:00      0.016     0.774     0.060     0.021
   06/26/2005 06:55:00      0.015     0.760     0.058     0.021
   06/26/2005 07:00:00      0.014     0.748     0.057     0.020
   06/26/2005 07:05:00      0.016     0.808     0.060     0.021
   06/26/2005 07:10:00      0.019     0.841     0.064     0.023
   06/26/2005 07:15:00      0.019     0.830     0.065     0.024
   06/26/2005 07:20:00      0.021     0.858     0.068     0.026
   06/26/2005 07:25:00      0.024     0.882     0.072     0.028
   06/26/2005 07:30:00      0.028     0.940     0.078     0.032
   06/26/2005 07:35:00      0.037     1.025     0.089     0.038
   06/26/2005 07:40:00      0.052     1.138     0.104     0.048
   06/26/2005 07:45:00      0.120     1.505     0.153     0.084
   06/26/2005 07:50:00      0.220     1.747     0.209     0.133
   06/26/2005 07:55:00      0.329     1.967     0.256     0.176
   06/26/2005 08:00:00      0.392     2.074     0.278     0.199
   06/26/2005 08:05:00      0.362     2.030     0.267     0.188
   06/26/2005 08:10:00      0.355     2.049     0.262     0.183
   06/26/2005 08:15:00      0.356     2.049     0.262     0.183
   06/26/2005 08:20:00      0.340     2.014     0.257     0.178
   06/26/2005 08:25:00      0.411     2.147     0.281     0.201
   06/26/2005 08:30:00      0.442     2.169     0.293     0.214
   06/26/2005 08:35:00      0.422     2.136     0.287     0.208
   06/26/2005 08:40:00      0.373     2.055     0.271     0.191
   06/26/2005 08:45:00      0.320     1.960     0.251     0.172
   06/26/2005 08:50:00      0.278     1.879     0.234     0.156
   06/26/2005 08:55:00      0.245     1.804     0.220     0.143
   06/26/2005 09:00:00      0.219     1.737     0.209     0.133
   06/26/2005 09:05:00      0.209     1.714     0.205     0.128
   06/26/2005 09:10:00      0.207     1.705     0.204     0.128
   06/26/2005 09:15:00      0.204     1.691     0.203     0.127
   06/26/2005 09:20:00      0.193     1.656     0.198     0.123
   06/26/2005 09:25:00      0.186     1.641     0.195     0.120
   06/26/2005 09:30:00      0.183     1.631     0.193     0.118
   06/26/2005 09:35:00      0.184     1.637     0.194     0.118
   06/26/2005 09:40:00      0.205     1.699     0.203     0.127
   06/26/2005 09:45:00      0.229     1.753     0.215     0.138
   06/26/2005 09:50:00      0.242     1.778     0.221     0.143
   06/26/2005 09:55:00      0.251     1.800     0.225     0.147
   06/26/2005 10:00:00      0.241     1.776     0.221     0.143
   06/26/2005 10:05:00      0.246     1.799     0.222     0.144
   06/26/2005 10:10:00      0.246     1.797     0.222     0.144
   06/26/2005 10:15:00      0.228     1.749     0.214     0.137
   06/26/2005 10:20:00      0.212     1.713     0.207     0.130
   06/26/2005 10:25:00      0.204     1.698     0.203     0.127
   06/26/2005 10:30:00      0.197     1.678     0.199     0.124
   06/26/2005 10:35:00      0.193     1.668     0.197     0.122
   06/26/2005 10:40:00      0.212     1.727     0.205     0.129
   06/26/2005 10:45:00      0.229     1.757     0.214     0.137
   06/26/2005 10:50:00      0.255     1.821     0.225     0.147
   06/26/2005 10:55:00      0.349     2.016     0.262     0.182
   06/26/2005 11:00:00      0.374     2.029     0.273     0.194
   06/26/2005 11:05:00      0.371     2.037     0.271     0.192
   06/26/2005 11:10:00      0.449     2.183     0.295     0.216
   06/26/2005 11:15:00      0.523     2.278     0.320     0.242
   06/26/2005 11:20:00      0.617     2.400     0.347     0.270
   06/26/2005 11:25:00      0.627     2.409     0.350     0.274
   06/26/2005 11:30:00      0.637     2.432     0.352     0.276
   06/26/2005 11:35:00      0.586     2.366     0.338     0.261
   06/26/2005 11:40:00      0.500     2.255     0.312     0.233
   06/26/2005 11:45:00      0.432     2.158     0.290     0.211
   06/26/2005 11:50:00      0.380     2.070     0.273     0.193
   06/26/2005 11:55:00      0.340     1.998     0.258     0.179
   06/26/2005 12:00:00      0.309     1.938     0.247     0.168
   06/26/2005 12:05:00      0.284     1.887     0.237     0.159
   06/26/2005 12:10:00      0.264     1.842     0.229     0.151
   06/26/2005 12:15:00      0.247     1.803     0.222     0.144
   06/26/2005 12:20:00      0.232     1.768     0.215     0.138
   06/26/2005 12:25:00      0.219     1.736     0.210     0.133
   06/26/2005 12:30:00      0.208     1.707     0.205     0.128
   06/26/2005 12:35:00      0.198     1.682     0.200     0.124
   06/26/2005 12:40:00      0.189     1.659     0.195     0.120
   06/26/2005 12:45:00      0.181     1.638     0.191     0.117
   06/26/2005 12:50:00      0.174     1.618     0.187     0.113
   06/26/2005 12:55:00      0.167     1.599     0.184     0.110
   06/26/2005 13:00:00      0.161     1.582     0.180     0.107
   06/26/2005 13:05:00      0.155     1.566     0.177     0.104
   06/26/2005 13:10:00      0.150     1.550     0.174     0.102
   06/26/2005 13:15:00      0.145     1.534     0.171     0.099
   06/26/2005 13:20:00      0.140     1.519     0.168     0.097
   06/26/2005 13:25:00      0.135     1.505     0.165     0.095
   06/26/2005 13:30:00      0.131     1.491     0.163     0.092
   06/26/2005 13:35:00      0.127     1.478     0.160     0.090
   06/26/2005 13:40:00      0.123     1.465     0.158     0.088
   06/26/2005 13:45:00      0.119     1.453     0.156     0.086
   06/26/2005 13:50:00      0.116     1.441     0.154     0.085
   06/26/2005 13:55:00      0.113     1.428     0.151     0.083
   06/26/2005 14:00:00      0.109     1.415     0.149     0.081
   06/26/2005 14:05:00      0.106     1.403     0.147     0.080
   06/26/2005 14:10:00      0.104     1.391     0.145     0.078
   06/26/2005 14:15:00      0.101     1.379     0.143     0.077
   06/26/2005 14:20:00      0.098     1.368     0.142     0.075
   06/26/2005 14:25:00      0.096     1.357     0.140     0.074
   06/26/2005 14:30:00      0.093     1.346     0.138     0.073
   06/26/2005 14:35:00      0.091     1.336     0.136     0.071
   06/26/2005 14:40:00      0.088     1.326     0.135     0.070
   06/26/2005 14:45:00      0.086     1.317     0.133     0.069
   06/26/2005 14:50:00      0.084     1.308     0.132     0.068
   06/26/2005 14:55:00      0.082     1.299     0.130     0.067
   06/26/2005 15:00:00      0.080     1.289     0.129     0.065
   06/26/2005 15:05:00      0.078     1.280     0.127     0.064
   06/26/2005 15:10:00      0.077     1.271     0.126     0.063
   06/26/2005 15:15:00      0.075     1.262     0.124     0.062
   06/26/2005 15:20:00      0.073     1.254     0.123     0.061
   06/26/2005 15:25:00      0.071     1.245     0.121     0.060
   06/26/2005 15:30:00      0.070     1.237     0.120     0.059
   06/26/2005 15:35:00      0.068     1.229     0.119     0.058
   06/26/2005 15:40:00      0.067     1.221     0.118     0.058
   06/26/2005 15:45:00      0.065     1.214     0.116     0.057
   06/26/2005 15:50:00      0.064     1.207     0.115     0.056
   06/26/2005 15:55:00      0.063     1.199     0.114     0.055
   06/26/2005 16:00:00      0.061     1.193     0.113     0.054
   06/26/2005 16:05:00      0.060     1.186     0.112     0.053
   06/26/2005 16:10:00      0.059     1.179     0.110     0.052
   06/26/2005 16:15:00      0.058     1.172     0.109     0.052
   06/26/2005 16:20:00      0.056     1.165     0.108     0.051
   06/26/2005 16:25:00      0.055     1.157     0.107     0.050
   06/26/2005 16:30:00      0.054     1.150     0.106     0.050
   06/26/2005 16:35:00      0.053     1.143     0.105     0.049
   06/26/2005 16:40:00      0.052     1.136     0.104     0.048
   06/26/2005 16:45:00      0.051     1.130     0.103     0.048
   06/26/2005 16:50:00      0.050     1.123     0.102     0.047
   06/26/2005 16:55:00      0.049     1.117     0.101     0.046
   06/26/2005 17:00:00      0.048     1.110     0.100     0.046
  
  
  <<< Link C22 >>>
  ----------------------------------------------------------------
                             Flow  Velocity     Depth  Capacity/
  Date        Time            CMS     m/sec    meters   Setting 
  ----------------------------------------------------------------
   06/26/2005 03:50:00      0.000     0.000     0.036     0.007
   06/26/2005 03:55:00      0.000     0.001     0.029     0.005
   06/26/2005 04:00:00      0.000     0.041     0.027     0.004
   06/26/2005 04:05:00      0.003     0.346     0.033     0.006
   06/26/2005 04:10:00      0.009     0.667     0.041     0.008
   06/26/2005 04:15:00      0.012     0.719     0.047     0.010
   06/26/2005 04:20:00      0.040     1.197     0.077     0.022
   06/26/2005 04:25:00      0.095     1.458     0.121     0.042
   06/26/2005 04:30:00      0.119     1.333     0.150     0.058
   06/26/2005 04:35:00      0.113     1.198     0.157     0.062
   06/26/2005 04:40:00      0.100     1.143     0.149     0.057
   06/26/2005 04:45:00      0.088     1.125     0.138     0.051
   06/26/2005 04:50:00      0.078     1.107     0.128     0.046
   06/26/2005 04:55:00      0.070     1.092     0.120     0.041
   06/26/2005 05:00:00      0.063     1.076     0.113     0.038
   06/26/2005 05:05:00      0.056     1.052     0.107     0.035
   06/26/2005 05:10:00      0.051     1.029     0.101     0.032
   06/26/2005 05:15:00      0.047     1.008     0.096     0.030
   06/26/2005 05:20:00      0.044     1.006     0.092     0.028
   06/26/2005 05:25:00      0.041     0.992     0.089     0.027
   06/26/2005 05:30:00      0.038     0.970     0.086     0.025
   06/26/2005 05:35:00      0.035     0.950     0.083     0.024
   06/26/2005 05:40:00      0.032     0.927     0.080     0.023
   06/26/2005 05:45:00      0.031     0.925     0.078     0.022
   06/26/2005 05:50:00      0.032     0.952     0.077     0.022
   06/26/2005 05:55:00      0.031     0.941     0.077     0.022
   06/26/2005 06:00:00      0.035     1.001     0.079     0.023
   06/26/2005 06:05:00      0.036     1.002     0.082     0.024
   06/26/2005 06:10:00      0.035     0.959     0.082     0.024
   06/26/2005 06:15:00      0.033     0.925     0.081     0.023
   06/26/2005 06:20:00      0.031     0.892     0.079     0.023
   06/26/2005 06:25:00      0.029     0.869     0.077     0.022
   06/26/2005 06:30:00      0.027     0.852     0.075     0.021
   06/26/2005 06:35:00      0.027     0.856     0.073     0.020
   06/26/2005 06:40:00      0.026     0.851     0.072     0.020
   06/26/2005 06:45:00      0.024     0.831     0.070     0.019
   06/26/2005 06:50:00      0.023     0.815     0.068     0.018
   06/26/2005 06:55:00      0.022     0.801     0.067     0.018
   06/26/2005 07:00:00      0.021     0.789     0.065     0.017
   06/26/2005 07:05:00      0.023     0.859     0.067     0.018
   06/26/2005 07:10:00      0.026     0.900     0.069     0.019
   06/26/2005 07:15:00      0.026     0.884     0.071     0.019
   06/26/2005 07:20:00      0.028     0.910     0.073     0.020
   06/26/2005 07:25:00      0.031     0.935     0.077     0.022
   06/26/2005 07:30:00      0.036     0.997     0.082     0.024
   06/26/2005 07:35:00      0.046     1.081     0.091     0.028
   06/26/2005 07:40:00      0.063     1.198     0.104     0.034
   06/26/2005 07:45:00      0.134     1.596     0.144     0.055
   06/26/2005 07:50:00      0.250     1.828     0.202     0.089
   06/26/2005 07:55:00      0.379     1.946     0.258     0.126
   06/26/2005 08:00:00      0.463     1.984     0.293     0.152
   06/26/2005 08:05:00      0.447     1.906     0.293     0.152
   06/26/2005 08:10:00      0.448     1.973     0.287     0.147
   06/26/2005 08:15:00      0.455     2.009     0.287     0.147
   06/26/2005 08:20:00      0.441     1.984     0.283     0.144
   06/26/2005 08:25:00      0.523     2.181     0.298     0.156
   06/26/2005 08:30:00      0.565     2.171     0.316     0.169
   06/26/2005 08:35:00      0.548     2.114     0.315     0.168
   06/26/2005 08:40:00      0.494     2.038     0.300     0.157
   06/26/2005 08:45:00      0.430     1.962     0.280     0.142
   06/26/2005 08:50:00      0.379     1.907     0.261     0.129
   06/26/2005 08:55:00      0.335     1.850     0.245     0.118
   06/26/2005 09:00:00      0.301     1.798     0.232     0.109
   06/26/2005 09:05:00      0.285     1.795     0.224     0.103
   06/26/2005 09:10:00      0.280     1.796     0.221     0.101
   06/26/2005 09:15:00      0.273     1.777     0.219     0.100
   06/26/2005 09:20:00      0.258     1.729     0.214     0.097
   06/26/2005 09:25:00      0.249     1.715     0.210     0.094
   06/26/2005 09:30:00      0.243     1.708     0.207     0.092
   06/26/2005 09:35:00      0.243     1.719     0.207     0.092
   06/26/2005 09:40:00      0.266     1.795     0.213     0.096
   06/26/2005 09:45:00      0.294     1.840     0.225     0.104
   06/26/2005 09:50:00      0.310     1.831     0.234     0.110
   06/26/2005 09:55:00      0.320     1.839     0.238     0.113
   06/26/2005 10:00:00      0.311     1.799     0.237     0.112
   06/26/2005 10:05:00      0.316     1.836     0.237     0.112
   06/26/2005 10:10:00      0.318     1.837     0.237     0.112
   06/26/2005 10:15:00      0.297     1.778     0.232     0.109
   06/26/2005 10:20:00      0.278     1.753     0.224     0.103
   06/26/2005 10:25:00      0.269     1.758     0.218     0.099
   06/26/2005 10:30:00      0.260     1.748     0.214     0.097
   06/26/2005 10:35:00      0.254     1.745     0.211     0.095
   06/26/2005 10:40:00      0.276     1.829     0.216     0.098
   06/26/2005 10:45:00      0.295     1.851     0.224     0.104
   06/26/2005 10:50:00      0.326     1.902     0.236     0.111
   06/26/2005 10:55:00      0.432     2.115     0.266     0.133
   06/26/2005 11:00:00      0.469     2.055     0.288     0.148
   06/26/2005 11:05:00      0.471     2.039     0.290     0.150
   06/26/2005 11:10:00      0.562     2.241     0.308     0.163
   06/26/2005 11:15:00      0.655     2.315     0.335     0.184
   06/26/2005 11:20:00      0.771     2.428     0.364     0.206
   06/26/2005 11:25:00      0.797     2.398     0.376     0.216
   06/26/2005 11:30:00      0.819     2.444     0.378     0.218
   06/26/2005 11:35:00      0.767     2.374     0.368     0.210
   06/26/2005 11:40:00      0.670     2.279     0.344     0.191
   06/26/2005 11:45:00      0.587     2.221     0.319     0.172
   06/26/2005 11:50:00      0.522     2.165     0.299     0.157
   06/26/2005 11:55:00      0.470     2.116     0.283     0.144
   06/26/2005 12:00:00      0.428     2.071     0.269     0.134
   06/26/2005 12:05:00      0.395     2.031     0.257     0.126
   06/26/2005 12:10:00      0.367     1.995     0.248     0.119
   06/26/2005 12:15:00      0.343     1.960     0.239     0.114
   06/26/2005 12:20:00      0.323     1.930     0.232     0.109
   06/26/2005 12:25:00      0.306     1.906     0.225     0.104
   06/26/2005 12:30:00      0.291     1.883     0.219     0.100
   06/26/2005 12:35:00      0.277     1.861     0.214     0.097
   06/26/2005 12:40:00      0.265     1.841     0.209     0.094
   06/26/2005 12:45:00      0.255     1.823     0.205     0.091
   06/26/2005 12:50:00      0.245     1.806     0.201     0.088
   06/26/2005 12:55:00      0.236     1.790     0.197     0.086
   06/26/2005 13:00:00      0.228     1.774     0.193     0.083
   06/26/2005 13:05:00      0.220     1.758     0.190     0.081
   06/26/2005 13:10:00      0.213     1.743     0.187     0.079
   06/26/2005 13:15:00      0.206     1.728     0.184     0.077
   06/26/2005 13:20:00      0.200     1.714     0.181     0.076
   06/26/2005 13:25:00      0.194     1.701     0.178     0.074
   06/26/2005 13:30:00      0.188     1.690     0.175     0.072
   06/26/2005 13:35:00      0.183     1.680     0.173     0.071
   06/26/2005 13:40:00      0.178     1.669     0.170     0.069
   06/26/2005 13:45:00      0.174     1.659     0.168     0.068
   06/26/2005 13:50:00      0.169     1.648     0.166     0.067
   06/26/2005 13:55:00      0.165     1.637     0.163     0.065
   06/26/2005 14:00:00      0.161     1.627     0.161     0.064
   06/26/2005 14:05:00      0.157     1.617     0.159     0.063
   06/26/2005 14:10:00      0.153     1.607     0.157     0.062
   06/26/2005 14:15:00      0.150     1.598     0.155     0.061
   06/26/2005 14:20:00      0.146     1.588     0.154     0.060
   06/26/2005 14:25:00      0.143     1.579     0.152     0.059
   06/26/2005 14:30:00      0.140     1.570     0.150     0.058
   06/26/2005 14:35:00      0.137     1.562     0.148     0.057
   06/26/2005 14:40:00      0.134     1.553     0.147     0.056
   06/26/2005 14:45:00      0.131     1.545     0.145     0.055
   06/26/2005 14:50:00      0.128     1.537     0.144     0.054
   06/26/2005 14:55:00      0.125     1.529     0.142     0.053
   06/26/2005 15:00:00      0.123     1.521     0.141     0.052
   06/26/2005 15:05:00      0.120     1.513     0.139     0.052
   06/26/2005 15:10:00      0.118     1.504     0.138     0.051
   06/26/2005 15:15:00      0.116     1.496     0.136     0.050
   06/26/2005 15:20:00      0.113     1.487     0.135     0.050
   06/26/2005 15:25:00      0.111     1.479     0.134     0.049
   06/26/2005 15:30:00      0.109     1.471     0.132     0.048
   06/26/2005 15:35:00      0.107     1.463     0.131     0.047
   06/26/2005 15:40:00      0.105     1.455     0.130     0.047
   06/26/2005 15:45:00      0.103     1.447     0.129     0.046
   06/26/2005 15:50:00      0.101     1.440     0.128     0.046
   06/26/2005 15:55:00      0.099     1.432     0.126     0.045
   06/26/2005 16:00:00      0.097     1.425     0.125     0.044
   06/26/2005 16:05:00      0.096     1.418     0.124     0.044
   06/26/2005 16:10:00      0.094     1.411     0.123     0.043
   06/26/2005 16:15:00      0.092     1.404     0.122     0.043
   06/26/2005 16:20:00      0.091     1.398     0.121     0.042
   06/26/2005 16:25:00      0.089     1.392     0.120     0.042
   06/26/2005 16:30:00      0.088     1.386     0.119     0.041
   06/26/2005 16:35:00      0.086     1.380     0.118     0.041
   06/26/2005 16:40:00      0.085     1.374     0.117     0.040
   06/26/2005 16:45:00      0.083     1.368     0.116     0.039
   06/26/2005 16:50:00      0.082     1.363     0.115     0.039
   06/26/2005 16:55:00      0.080     1.357     0.114     0.038
   06/26/2005 17:00:00      0.079     1.352     0.113     0.038
  

  Analysis begun on:  Wed Mar 27 19:41:34 2019
  Analysis ended on:  Wed Mar 27 19:41:35 2019
  Total elapsed time: 00:00:01