
  EPA STORM WATER MANAGEMENT MODEL - VERSION 5.1 (Build 5.1.012)
  --------------------------------------------------------------

  
  *************
  Element Count
  *************
  Number of rain gages ...... 1
  Number of subcatchments ... 15
  Number of nodes ........... 25
  Number of links ........... 24
  Number of pollutants ...... 0
  Number of land uses ....... 0
  
  
  ****************
  Raingage Summary
  ****************
                                                      Data       Recording
  Name                 Data Source                    Type       Interval 
  ------------------------------------------------------------------------
  1                    20050626                       VOLUME       5 min.
  
  
  ********************
  Subcatchment Summary
  ********************
  Name                       Area     Width   %Imperv    %Slope Rain Gage            Outlet              
  -----------------------------------------------------------------------------------------------------------
  S1                         2.21    400.00     80.00    0.0500 1                    J1                  
  S2                         7.25    400.00     50.00    0.0500 1                    J0                  
  S3                         1.53    400.00     30.00    0.0500 1                    J4                  
  S4                         6.18    400.00     20.00    0.0500 1                    J8                  
  S5                         9.28    400.00     20.00    0.0500 1                    J7                  
  S6                         6.98    400.00     60.00    0.0500 1                    J5                  
  S7                         3.28    400.00     40.00    0.0500 1                    J25                 
  S8                        10.68    400.00     70.00    0.0500 1                    J11                 
  S9                        16.43    400.00     40.00    0.0500 1                    J14                 
  S10                        2.73    400.00     40.00    0.0500 1                    J9                  
  S11                        9.27    700.00     40.00    0.0500 1                    J10                 
  S12                       10.58    400.00     60.00    0.0500 1                    J17                 
  S13                       10.08    500.00     60.00    0.0500 1                    J24                 
  S14                       11.53    400.00     40.00    0.0500 1                    J15                 
  S15                        8.92    400.00     50.00    0.0500 1                    J23                 
  
  
  ************
  Node Summary
  ************
                                           Invert      Max.    Ponded    External
  Name                 Type                 Elev.     Depth      Area    Inflow  
  -------------------------------------------------------------------------------
  J0                   JUNCTION             30.99      4.00       0.0
  J1                   JUNCTION             28.99      4.00       0.0
  J2                   JUNCTION             25.99      4.00       0.0
  J3                   JUNCTION             30.99      4.00       0.0
  J4                   JUNCTION             33.99      4.00       0.0
  J5                   JUNCTION             28.99      4.00       0.0
  J6                   JUNCTION             23.79      4.00       0.0
  J7                   JUNCTION             28.39      4.00       0.0
  J8                   JUNCTION             29.99      4.00       0.0
  J9                   JUNCTION             28.69      4.00       0.0
  J10                  JUNCTION             25.99      4.00       0.0
  J11                  JUNCTION             25.69      4.00       0.0
  J12                  JUNCTION             22.79      4.00       0.0
  J13                  JUNCTION             25.29      4.00       0.0
  J14                  JUNCTION             24.59      4.00       0.0
  J15                  JUNCTION             24.19      4.00       0.0
  J16                  JUNCTION             23.39      4.00       0.0
  J17                  JUNCTION             22.09      4.00       0.0
  J18                  JUNCTION             16.00      4.00       0.0
  J20                  JUNCTION             17.70      4.00       0.0
  J21                  JUNCTION             19.00      4.00       0.0
  J23                  JUNCTION             22.29      4.00       0.0
  J24                  JUNCTION             20.89      4.00       0.0
  J25                  JUNCTION             30.19      4.00       0.0
  J19                  OUTFALL              15.50      3.60       0.0
  
  
  ************
  Link Summary
  ************
  Name             From Node        To Node          Type            Length    %Slope Roughness
  ---------------------------------------------------------------------------------------------
  C0               J0               J2               CONDUIT          214.0    2.3371    0.0110
  C1               J1               J2               CONDUIT          152.0    1.9741    0.0110
  C2               J3               J2               CONDUIT          306.0    1.6342    0.0110
  C3               J4               J3               CONDUIT          128.0    2.3444    0.0110
  C4               J2               J6               CONDUIT          293.0    0.7509    0.0110
  C5               J5               J6               CONDUIT          246.0    2.1143    0.0110
  C6               J25              J11              CONDUIT          289.0    1.5573    0.0110
  C7               J6               J12              CONDUIT          335.0    0.2985    0.0110
  C8               J7               J6               CONDUIT          187.0    2.4606    0.0110
  C9               J8               J9               CONDUIT          119.0    1.0925    0.0110
  C10              J9               J16              CONDUIT          325.0    1.6310    0.0110
  C11              J10              J11              CONDUIT          227.0    0.1322    0.0110
  C12              J12              J18              CONDUIT          401.0    1.6935    0.0110
  C13              J17              J18              CONDUIT          267.0    2.2815    0.0110
  C14              J11              J13              CONDUIT          113.0    0.3540    0.0110
  C16              J13              J17              CONDUIT          409.0    0.7824    0.0110
  C17              J24              J20              CONDUIT          329.0    0.9697    0.0110
  C18              J20              J18              CONDUIT          215.0    0.7907    0.0110
  C19              J16              J21              CONDUIT          437.0    1.0046    0.0110
  C20              J21              J20              CONDUIT          295.0    0.4407    0.0110
  C21              J23              J21              CONDUIT          204.0    1.6130    0.0110
  C23              J18              J19              CONDUIT          161.0    0.3106    0.0110
  C24              J15              J16              CONDUIT          197.0    0.4061    0.0110
  C22              J14              J12              CONDUIT          280.0    0.6429    0.0110
  
  
  *********************
  Cross Section Summary
  *********************
                                        Full     Full     Hyd.     Max.   No. of     Full
  Conduit          Shape               Depth     Area     Rad.    Width  Barrels     Flow
  ---------------------------------------------------------------------------------------
  C0               CIRCULAR             0.70     0.38     0.17     0.70        1     1.67
  C1               CIRCULAR             0.60     0.28     0.15     0.60        1     1.02
  C2               CIRCULAR             0.80     0.50     0.20     0.80        1     2.00
  C3               CIRCULAR             0.60     0.28     0.15     0.60        1     1.11
  C4               CIRCULAR             1.20     1.13     0.30     1.20        1     3.99
  C5               CIRCULAR             0.70     0.38     0.17     0.70        1     1.59
  C6               CIRCULAR             0.80     0.50     0.20     0.80        1     1.95
  C7               CIRCULAR             2.40     4.52     0.60     2.40        1    15.99
  C8               CIRCULAR             0.70     0.38     0.17     0.70        1     1.72
  C9               CIRCULAR             0.70     0.38     0.17     0.70        1     1.14
  C10              CIRCULAR             1.00     0.79     0.25     1.00        1     3.62
  C11              CIRCULAR             1.50     1.77     0.38     1.50        1     3.04
  C12              CIRCULAR             3.00     7.07     0.75     3.00        1    69.04
  C13              CIRCULAR             1.50     1.77     0.38     1.50        1    12.62
  C14              CIRCULAR             1.50     1.77     0.38     1.50        1     4.97
  C16              CIRCULAR             1.35     1.43     0.34     1.35        1     5.58
  C17              CIRCULAR             0.80     0.50     0.20     0.80        1     1.54
  C18              CIRCULAR             3.00     7.07     0.75     3.00        1    47.18
  C19              CIRCULAR             3.00     7.07     0.75     3.00        1    53.18
  C20              CIRCULAR             3.00     7.07     0.75     3.00        1    35.22
  C21              CIRCULAR             1.00     0.79     0.25     1.00        1     3.60
  C23              CIRCULAR             3.60    10.18     0.90     3.60        1    48.08
  C24              CIRCULAR             1.10     0.95     0.28     1.10        1     2.33
  C22              CIRCULAR             1.40     1.54     0.35     1.40        1     5.57
  
  
  
  *********************************************************
  NOTE: The summary statistics displayed in this report are
  based on results found at every computational time step,  
  not just on results from each reporting time step.
  *********************************************************
  
  ****************
  Analysis Options
  ****************
  Flow Units ............... CMS
  Process Models:
    Rainfall/Runoff ........ YES
    RDII ................... NO
    Snowmelt ............... NO
    Groundwater ............ NO
    Flow Routing ........... YES
    Ponding Allowed ........ NO
    Water Quality .......... NO
  Infiltration Method ...... HORTON
  Flow Routing Method ...... DYNWAVE
  Starting Date ............ 06/26/2005 03:45:00
  Ending Date .............. 06/26/2005 16:00:00
  Antecedent Dry Days ...... 0.0
  Report Time Step ......... 00:05:00
  Wet Time Step ............ 00:05:00
  Dry Time Step ............ 01:00:00
  Routing Time Step ........ 30.00 sec
  Variable Time Step ....... YES
  Maximum Trials ........... 8
  Number of Threads ........ 1
  Head Tolerance ........... 0.005000 m
  
  
  **************************        Volume         Depth
  Runoff Quantity Continuity     hectare-m            mm
  **************************     ---------       -------
  Total Precipitation ......         9.122        78.000
  Evaporation Loss .........         0.000         0.000
  Infiltration Loss ........         1.025         8.768
  Surface Runoff ...........         6.895        58.964
  Final Storage ............         1.215        10.394
  Continuity Error (%) .....        -0.161
  
  
  **************************        Volume        Volume
  Flow Routing Continuity        hectare-m      10^6 ltr
  **************************     ---------     ---------
  Dry Weather Inflow .......         0.000         0.000
  Wet Weather Inflow .......         6.887        68.874
  Groundwater Inflow .......         0.000         0.000
  RDII Inflow ..............         0.000         0.000
  External Inflow ..........         0.000         0.000
  External Outflow .........         6.857        68.568
  Flooding Loss ............         0.000         0.000
  Evaporation Loss .........         0.000         0.000
  Exfiltration Loss ........         0.000         0.000
  Initial Stored Volume ....         0.021         0.207
  Final Stored Volume ......         0.042         0.422
  Continuity Error (%) .....         0.133
  
  
  ***************************
  Time-Step Critical Elements
  ***************************
  Link C14 (49.15%)
  
  
  ********************************
  Highest Flow Instability Indexes
  ********************************
  Link C17 (2)
  Link C9 (2)
  Link C3 (2)
  Link C21 (2)
  Link C13 (2)
  
  
  *************************
  Routing Time Step Summary
  *************************
  Minimum Time Step           :    13.89 sec
  Average Time Step           :    26.76 sec
  Maximum Time Step           :    30.00 sec
  Percent in Steady State     :    -0.00
  Average Iterations per Step :     2.00
  Percent Not Converging      :     0.00
  
  
  ***************************
  Subcatchment Runoff Summary
  ***************************
  
  --------------------------------------------------------------------------------------------------------
                            Total      Total      Total      Total      Total       Total     Peak  Runoff
                           Precip      Runon       Evap      Infil     Runoff      Runoff   Runoff   Coeff
  Subcatchment                 mm         mm         mm         mm         mm    10^6 ltr      CMS
  --------------------------------------------------------------------------------------------------------
  S1                        78.00       0.00       0.00       3.30      73.00        1.61     0.22   0.936
  S2                        78.00       0.00       0.00       8.25      61.98        4.50     0.46   0.795
  S3                        78.00       0.00       0.00      11.54      61.84        0.95     0.11   0.793
  S4                        78.00       0.00       0.00      13.19      50.46        3.12     0.28   0.647
  S5                        78.00       0.00       0.00      13.19      46.00        4.27     0.37   0.590
  S6                        78.00       0.00       0.00       6.60      65.84        4.60     0.48   0.844
  S7                        78.00       0.00       0.00       9.89      62.22        2.04     0.23   0.798
  S8                        78.00       0.00       0.00       4.95      67.74        7.23     0.72   0.869
  S9                        78.00       0.00       0.00       9.89      50.82        8.35     0.74   0.652
  S10                       78.00       0.00       0.00       9.89      62.88        1.72     0.19   0.806
  S11                       78.00       0.00       0.00       9.89      59.93        5.56     0.58   0.768
  S12                       78.00       0.00       0.00       6.60      63.97        6.77     0.66   0.820
  S13                       78.00       0.00       0.00       6.60      65.26        6.58     0.67   0.837
  S14                       78.00       0.00       0.00       9.89      54.16        6.25     0.58   0.694
  S15                       78.00       0.00       0.00       8.25      60.78        5.42     0.53   0.779
  
  
  ******************
  Node Depth Summary
  ******************
  
  ---------------------------------------------------------------------------------
                                 Average  Maximum  Maximum  Time of Max    Reported
                                   Depth    Depth      HGL   Occurrence   Max Depth
  Node                 Type       Meters   Meters   Meters  days hr:min      Meters
  ---------------------------------------------------------------------------------
  J0                   JUNCTION     0.11     0.25    31.24     0  07:35        0.25
  J1                   JUNCTION     0.07     0.19    29.18     0  07:35        0.19
  J2                   JUNCTION     0.15     0.36    26.35     0  07:37        0.35
  J3                   JUNCTION     0.05     0.12    31.11     0  07:36        0.12
  J4                   JUNCTION     0.05     0.13    34.12     0  07:35        0.13
  J5                   JUNCTION     0.11     0.26    29.25     0  07:35        0.26
  J6                   JUNCTION     0.24     0.52    24.31     0  07:38        0.52
  J7                   JUNCTION     0.11     0.22    28.61     0  07:35        0.22
  J8                   JUNCTION     0.11     0.23    30.22     0  07:35        0.23
  J9                   JUNCTION     0.11     0.24    28.93     0  07:36        0.24
  J10                  JUNCTION     0.20     0.44    26.43     0  07:36        0.43
  J11                  JUNCTION     0.25     0.56    26.25     0  07:37        0.56
  J12                  JUNCTION     0.18     0.38    23.17     0  07:40        0.38
  J13                  JUNCTION     0.22     0.49    25.78     0  07:38        0.48
  J14                  JUNCTION     0.17     0.35    24.94     0  07:45        0.34
  J15                  JUNCTION     0.18     0.38    24.57     0  07:35        0.38
  J16                  JUNCTION     0.14     0.29    23.68     0  07:37        0.29
  J17                  JUNCTION     0.19     0.42    22.51     0  07:39        0.42
  J18                  JUNCTION     0.42     0.90    16.90     0  07:41        0.90
  J20                  JUNCTION     0.21     0.44    18.14     0  07:41        0.44
  J21                  JUNCTION     0.21     0.43    19.43     0  07:39        0.43
  J23                  JUNCTION     0.12     0.26    22.55     0  07:35        0.26
  J24                  JUNCTION     0.16     0.37    21.26     0  07:36        0.37
  J25                  JUNCTION     0.08     0.18    30.37     0  07:35        0.18
  J19                  OUTFALL      0.42     0.90    16.40     0  07:42        0.90
  
  
  *******************
  Node Inflow Summary
  *******************
  
  -------------------------------------------------------------------------------------------------
                                  Maximum  Maximum                  Lateral       Total        Flow
                                  Lateral    Total  Time of Max      Inflow      Inflow     Balance
                                   Inflow   Inflow   Occurrence      Volume      Volume       Error
  Node                 Type           CMS      CMS  days hr:min    10^6 ltr    10^6 ltr     Percent
  -------------------------------------------------------------------------------------------------
  J0                   JUNCTION     0.460    0.460     0  07:35        4.49        4.49      -0.146
  J1                   JUNCTION     0.220    0.220     0  07:35        1.61        1.61      -0.047
  J2                   JUNCTION     0.000    0.782     0  07:35           0        7.06      -0.081
  J3                   JUNCTION     0.000    0.107     0  07:35           0       0.947       0.080
  J4                   JUNCTION     0.108    0.108     0  07:35       0.946       0.946      -0.048
  J5                   JUNCTION     0.483    0.483     0  07:35        4.59        4.59       0.018
  J6                   JUNCTION     0.000    1.602     0  07:37           0        15.9       0.088
  J7                   JUNCTION     0.365    0.365     0  07:35        4.26        4.26       0.056
  J8                   JUNCTION     0.277    0.277     0  07:35        3.11        3.11       0.044
  J9                   JUNCTION     0.195    0.470     0  07:35        1.72        4.83       0.076
  J10                  JUNCTION     0.577    0.577     0  07:35        5.55        5.55       0.076
  J11                  JUNCTION     0.718    1.489     0  07:36        7.23        14.8       0.135
  J12                  JUNCTION     0.000    2.322     0  07:39           0        24.2       0.016
  J13                  JUNCTION     0.000    1.480     0  07:37           0        14.8       0.072
  J14                  JUNCTION     0.744    0.744     0  07:45        8.34        8.34       0.101
  J15                  JUNCTION     0.575    0.575     0  07:45        6.24        6.24       0.072
  J16                  JUNCTION     0.000    1.043     0  07:36           0        11.1       0.204
  J17                  JUNCTION     0.663    2.128     0  07:39        6.76        21.6       0.060
  J18                  JUNCTION     0.000    6.636     0  07:40           0        68.7       0.189
  J20                  JUNCTION     0.000    2.202     0  07:39           0          23       0.132
  J21                  JUNCTION     0.000    1.556     0  07:37           0        16.4       0.291
  J23                  JUNCTION     0.533    0.533     0  07:35        5.41        5.41       0.017
  J24                  JUNCTION     0.671    0.671     0  07:35        6.57        6.57       0.021
  J25                  JUNCTION     0.226    0.226     0  07:35        2.04        2.04       0.001
  J19                  OUTFALL      0.000    6.646     0  07:42           0        68.6       0.000
  
  
  **********************
  Node Surcharge Summary
  **********************
  
  No nodes were surcharged.
  
  
  *********************
  Node Flooding Summary
  *********************
  
  No nodes were flooded.
  
  
  ***********************
  Outfall Loading Summary
  ***********************
  
  -----------------------------------------------------------
                         Flow       Avg       Max       Total
                         Freq      Flow      Flow      Volume
  Outfall Node           Pcnt       CMS       CMS    10^6 ltr
  -----------------------------------------------------------
  J19                  100.00     1.788     6.646      68.567
  -----------------------------------------------------------
  System               100.00     1.788     6.646      68.567
  
  
  ********************
  Link Flow Summary
  ********************
  
  -----------------------------------------------------------------------------
                                 Maximum  Time of Max   Maximum    Max/    Max/
                                  |Flow|   Occurrence   |Veloc|    Full    Full
  Link                 Type          CMS  days hr:min     m/sec    Flow   Depth
  -----------------------------------------------------------------------------
  C0                   CONDUIT     0.460     0  07:35      4.43    0.27    0.43
  C1                   CONDUIT     0.219     0  07:35      1.88    0.21    0.45
  C2                   CONDUIT     0.105     0  07:36      0.83    0.05    0.30
  C3                   CONDUIT     0.107     0  07:35      2.51    0.10    0.21
  C4                   CONDUIT     0.766     0  07:37      2.04    0.19    0.37
  C5                   CONDUIT     0.483     0  07:35      2.20    0.30    0.56
  C6                   CONDUIT     0.224     0  07:36      0.99    0.11    0.46
  C7                   CONDUIT     1.599     0  07:39      2.73    0.10    0.19
  C8                   CONDUIT     0.365     0  07:35      1.79    0.21    0.53
  C9                   CONDUIT     0.276     0  07:35      2.39    0.24    0.34
  C10                  CONDUIT     0.466     0  07:36      2.81    0.13    0.26
  C11                  CONDUIT     0.569     0  07:36      1.11    0.19    0.33
  C12                  CONDUIT     2.315     0  07:40      2.59    0.03    0.21
  C13                  CONDUIT     2.126     0  07:39      2.85    0.17    0.44
  C14                  CONDUIT     1.480     0  07:37      2.70    0.30    0.35
  C16                  CONDUIT     1.480     0  07:39      3.54    0.27    0.33
  C17                  CONDUIT     0.668     0  07:36      2.68    0.43    0.50
  C18                  CONDUIT     2.198     0  07:41      1.86    0.05    0.22
  C19                  CONDUIT     1.029     0  07:37      2.17    0.02    0.12
  C20                  CONDUIT     1.543     0  07:40      2.44    0.04    0.14
  C21                  CONDUIT     0.533     0  07:35      2.29    0.15    0.34
  C23                  CONDUIT     6.646     0  07:42      3.66    0.14    0.25
  C24                  CONDUIT     0.577     0  07:36      2.37    0.25    0.30
  C22                  CONDUIT     0.742     0  07:45      2.37    0.13    0.26
  
  
  ***************************
  Flow Classification Summary
  ***************************
  
  -------------------------------------------------------------------------------------
                      Adjusted    ---------- Fraction of Time in Flow Class ---------- 
                       /Actual         Up    Down  Sub   Sup   Up    Down  Norm  Inlet 
  Conduit               Length    Dry  Dry   Dry   Crit  Crit  Crit  Crit  Ltd   Ctrl  
  -------------------------------------------------------------------------------------
  C0                      1.00   0.00  0.00  0.00  0.02  0.98  0.00  0.00  1.00  0.00
  C1                      1.00   0.00  0.01  0.00  0.63  0.36  0.00  0.00  0.99  0.00
  C2                      1.00   0.00  0.01  0.00  0.99  0.00  0.00  0.00  0.99  0.00
  C3                      1.00   0.01  0.00  0.00  0.00  0.99  0.00  0.00  0.82  0.00
  C4                      1.00   0.00  0.00  0.00  0.56  0.44  0.00  0.00  1.00  0.00
  C5                      1.00   0.00  0.01  0.00  0.34  0.65  0.00  0.00  0.99  0.00
  C6                      1.00   0.01  0.00  0.00  0.98  0.01  0.00  0.00  0.99  0.00
  C7                      1.00   0.00  0.00  0.00  0.00  1.00  0.00  0.00  0.00  0.00
  C8                      1.00   0.00  0.01  0.00  0.42  0.57  0.00  0.00  0.99  0.00
  C9                      1.00   0.01  0.00  0.00  0.01  0.98  0.00  0.00  0.60  0.00
  C10                     1.00   0.01  0.00  0.00  0.00  0.99  0.00  0.00  0.95  0.00
  C11                     1.00   0.01  0.00  0.00  0.99  0.00  0.00  0.00  0.96  0.00
  C12                     1.00   0.00  0.00  0.00  0.90  0.10  0.00  0.00  1.00  0.00
  C13                     1.00   0.00  0.01  0.00  0.22  0.77  0.00  0.00  0.99  0.00
  C14                     1.00   0.01  0.00  0.00  0.01  0.98  0.00  0.00  0.30  0.00
  C16                     1.00   0.01  0.00  0.00  0.02  0.97  0.00  0.00  0.02  0.00
  C17                     1.00   0.01  0.00  0.00  0.16  0.83  0.00  0.00  0.93  0.00
  C18                     1.00   0.00  0.01  0.00  0.99  0.00  0.00  0.00  0.99  0.00
  C19                     1.00   0.01  0.00  0.00  0.06  0.93  0.00  0.00  0.99  0.00
  C20                     1.00   0.01  0.00  0.00  0.02  0.97  0.00  0.00  0.56  0.00
  C21                     1.00   0.01  0.00  0.00  0.12  0.87  0.00  0.00  0.97  0.00
  C23                     1.00   0.00  0.00  0.00  0.00  1.00  0.00  0.00  0.59  0.00
  C24                     1.00   0.01  0.00  0.00  0.01  0.98  0.00  0.00  0.00  0.00
  C22                     1.00   0.00  0.01  0.00  0.02  0.97  0.00  0.00  0.71  0.00
  
  
  *************************
  Conduit Surcharge Summary
  *************************
  
  No conduits were surcharged.
  
  
  ********************
  Subcatchment Results
  ********************
  
  <<< Subcatchment S1 >>>
  ---------------------------------------------------
  Date        Time        Precip.    Losses    Runoff
                            mm/hr     mm/hr       CMS
  ---------------------------------------------------
   06/26/2005 03:50:00      2.400     0.259    0.0000
   06/26/2005 03:55:00     10.800     1.116    0.0000
   06/26/2005 04:00:00     14.400     1.204    0.0016
   06/26/2005 04:05:00      2.400     0.152    0.0077
   06/26/2005 04:10:00      3.600     0.218    0.0081
   06/26/2005 04:15:00     31.200     1.780    0.0096
   06/26/2005 04:20:00     24.000     0.960    0.0469
   06/26/2005 04:25:00     10.800     0.432    0.0719
   06/26/2005 04:30:00      1.200     0.048    0.0659
   06/26/2005 04:35:00      0.000     0.000    0.0462
   06/26/2005 04:40:00      0.000     0.000    0.0328
   06/26/2005 04:45:00      0.000     0.000    0.0243
   06/26/2005 04:50:00      0.000     0.000    0.0186
   06/26/2005 04:55:00      0.000     0.000    0.0147
   06/26/2005 05:00:00      0.000     0.000    0.0119
   06/26/2005 05:05:00      0.000     0.000    0.0098
   06/26/2005 05:10:00      0.000     0.000    0.0082
   06/26/2005 05:15:00      1.200     0.048    0.0069
   06/26/2005 05:20:00      0.000     0.000    0.0069
   06/26/2005 05:25:00      0.000     0.000    0.0059
   06/26/2005 05:30:00      0.000     0.000    0.0051
   06/26/2005 05:35:00      0.000     0.000    0.0045
   06/26/2005 05:40:00      1.200     0.048    0.0040
   06/26/2005 05:45:00      2.400     0.096    0.0043
   06/26/2005 05:50:00      0.000     0.000    0.0055
   06/26/2005 05:55:00      6.000     0.240    0.0048
   06/26/2005 06:00:00      0.000     0.000    0.0091
   06/26/2005 06:05:00      1.200     0.048    0.0076
   06/26/2005 06:10:00      0.000     0.000    0.0075
   06/26/2005 06:15:00      0.000     0.000    0.0064
   06/26/2005 06:20:00      0.000     0.000    0.0056
   06/26/2005 06:25:00      0.000     0.000    0.0049
   06/26/2005 06:30:00      1.200     0.048    0.0043
   06/26/2005 06:35:00      0.000     0.000    0.0046
   06/26/2005 06:40:00      0.000     0.000    0.0041
   06/26/2005 06:45:00      0.000     0.000    0.0036
   06/26/2005 06:50:00      0.000     0.000    0.0033
   06/26/2005 06:55:00      0.000     0.000    0.0029
   06/26/2005 07:00:00      4.800     0.192    0.0027
   06/26/2005 07:05:00      1.200     0.048    0.0056
   06/26/2005 07:10:00      1.200     0.048    0.0057
   06/26/2005 07:15:00      3.600     0.144    0.0059
   06/26/2005 07:20:00      2.400     0.096    0.0080
   06/26/2005 07:25:00      6.000     0.240    0.0089
   06/26/2005 07:30:00      7.200     0.288    0.0133
   06/26/2005 07:35:00     12.000     0.480    0.0187
   06/26/2005 07:40:00     39.600     1.584    0.0300
   06/26/2005 07:45:00     40.800     1.632    0.0897
   06/26/2005 07:50:00     45.600     1.824    0.1432
   06/26/2005 07:55:00     34.800     1.392    0.1913
   06/26/2005 08:00:00     12.000     0.480    0.1927
   06/26/2005 08:05:00     21.600     0.864    0.1396
   06/26/2005 08:10:00     20.400     0.816    0.1337
   06/26/2005 08:15:00     14.400     0.576    0.1277
   06/26/2005 08:20:00     42.000     1.680    0.1114
   06/26/2005 08:25:00     27.600     1.104    0.1641
   06/26/2005 08:30:00     16.800     0.672    0.1623
   06/26/2005 08:35:00      7.200     0.288    0.1364
   06/26/2005 08:40:00      2.400     0.096    0.1018
   06/26/2005 08:45:00      2.400     0.096    0.0732
   06/26/2005 08:50:00      1.200     0.048    0.0562
   06/26/2005 08:55:00      1.200     0.048    0.0435
   06/26/2005 09:00:00      6.000     0.240    0.0349
   06/26/2005 09:05:00      7.200     0.288    0.0355
   06/26/2005 09:10:00      6.000     0.240    0.0377
   06/26/2005 09:15:00      2.400     0.096    0.0375
   06/26/2005 09:20:00      4.800     0.192    0.0322
   06/26/2005 09:25:00      4.800     0.192    0.0316
   06/26/2005 09:30:00      7.200     0.288    0.0311
   06/26/2005 09:35:00     15.600     0.624    0.0340
   06/26/2005 09:40:00     15.600     0.624    0.0494
   06/26/2005 09:45:00     12.000     0.480    0.0617
   06/26/2005 09:50:00     12.000     0.480    0.0642
   06/26/2005 09:55:00      4.800     0.192    0.0660
   06/26/2005 10:00:00     12.000     0.480    0.0546
   06/26/2005 10:05:00      8.400     0.336    0.0593
   06/26/2005 10:10:00      1.200     0.048    0.0564
   06/26/2005 10:15:00      2.400     0.096    0.0427
   06/26/2005 10:20:00      4.800     0.192    0.0356
   06/26/2005 10:25:00      3.600     0.144    0.0340
   06/26/2005 10:30:00      4.800     0.192    0.0312
   06/26/2005 10:35:00     15.600     0.624    0.0307
   06/26/2005 10:40:00     12.000     0.480    0.0465
   06/26/2005 10:45:00     18.000     0.720    0.0532
   06/26/2005 10:50:00     42.000     1.680    0.0689
   06/26/2005 10:55:00     16.800     0.672    0.1313
   06/26/2005 11:00:00     14.400     0.576    0.1173
   06/26/2005 11:05:00     40.800     1.632    0.1044
   06/26/2005 11:10:00     37.200     1.488    0.1557
   06/26/2005 11:15:00     46.800     1.872    0.1801
   06/26/2005 11:20:00     27.600     1.104    0.2195
   06/26/2005 11:25:00     31.200     1.248    0.1922
   06/26/2005 11:30:00     13.200     0.528    0.1874
   06/26/2005 11:35:00      1.200     0.048    0.1421
   06/26/2005 11:40:00      1.200     0.048    0.0933
   06/26/2005 11:45:00      0.000     0.000    0.0665
   06/26/2005 11:50:00      0.000     0.000    0.0484
   06/26/2005 11:55:00      0.000     0.000    0.0368
   06/26/2005 12:00:00      0.000     0.000    0.0288
   06/26/2005 12:05:00      0.000     0.000    0.0232
   06/26/2005 12:10:00      0.000     0.000    0.0190
   06/26/2005 12:15:00      0.000     0.000    0.0159
   06/26/2005 12:20:00      0.000     0.000    0.0134
   06/26/2005 12:25:00      0.000     0.000    0.0115
   06/26/2005 12:30:00      0.000     0.000    0.0099
   06/26/2005 12:35:00      0.000     0.000    0.0087
   06/26/2005 12:40:00      0.000     0.000    0.0076
   06/26/2005 12:45:00      0.000     0.000    0.0067
   06/26/2005 12:50:00      0.000     0.000    0.0060
   06/26/2005 12:55:00      0.000     0.000    0.0054
   06/26/2005 13:00:00      0.000     0.000    0.0048
   06/26/2005 13:05:00      0.000     0.000    0.0044
   06/26/2005 13:10:00      0.000     0.000    0.0040
   06/26/2005 13:15:00      0.000     0.000    0.0036
   06/26/2005 13:20:00      0.000     0.000    0.0033
   06/26/2005 13:25:00      0.000     0.000    0.0030
   06/26/2005 13:30:00      0.000     0.000    0.0028
   06/26/2005 13:35:00      0.000     0.000    0.0026
   06/26/2005 13:40:00      0.000     0.000    0.0024
   06/26/2005 13:45:00      0.000     0.000    0.0022
   06/26/2005 13:50:00      0.000     0.000    0.0020
   06/26/2005 13:55:00      0.000     0.000    0.0019
   06/26/2005 14:00:00      0.000     0.000    0.0018
   06/26/2005 14:05:00      0.000     0.000    0.0017
   06/26/2005 14:10:00      0.000     0.000    0.0016
   06/26/2005 14:15:00      0.000     0.000    0.0015
   06/26/2005 14:20:00      0.000     0.000    0.0014
   06/26/2005 14:25:00      0.000     0.000    0.0013
   06/26/2005 14:30:00      0.000     0.000    0.0012
   06/26/2005 14:35:00      0.000     0.000    0.0012
   06/26/2005 14:40:00      0.000     0.000    0.0011
   06/26/2005 14:45:00      0.000     0.000    0.0010
   06/26/2005 14:50:00      0.000     0.000    0.0010
   06/26/2005 14:55:00      0.000     0.000    0.0009
   06/26/2005 15:00:00      0.000     0.000    0.0009
   06/26/2005 15:05:00      0.000     0.000    0.0008
   06/26/2005 15:10:00      0.000     0.000    0.0008
   06/26/2005 15:15:00      0.000     0.000    0.0008
   06/26/2005 15:20:00      0.000     0.000    0.0007
   06/26/2005 15:25:00      0.000     0.000    0.0007
   06/26/2005 15:30:00      0.000     0.000    0.0007
   06/26/2005 15:35:00      0.000     0.000    0.0006
   06/26/2005 15:40:00      0.000     0.000    0.0006
   06/26/2005 15:45:00      0.000     0.000    0.0006
   06/26/2005 15:50:00      0.000     0.000    0.0006
   06/26/2005 15:55:00      0.000     0.000    0.0005
  
  
  <<< Subcatchment S2 >>>
  ---------------------------------------------------
  Date        Time        Precip.    Losses    Runoff
                            mm/hr     mm/hr       CMS
  ---------------------------------------------------
   06/26/2005 03:50:00      2.400     0.649    0.0000
   06/26/2005 03:55:00     10.800     2.791    0.0000
   06/26/2005 04:00:00     14.400     3.009    0.0017
   06/26/2005 04:05:00      2.400     0.379    0.0083
   06/26/2005 04:10:00      3.600     0.546    0.0095
   06/26/2005 04:15:00     31.200     4.449    0.0119
   06/26/2005 04:20:00     24.000     2.400    0.0555
   06/26/2005 04:25:00     10.800     1.080    0.0935
   06/26/2005 04:30:00      1.200     0.120    0.0976
   06/26/2005 04:35:00      0.000     0.000    0.0797
   06/26/2005 04:40:00      0.000     0.000    0.0641
   06/26/2005 04:45:00      0.000     0.000    0.0526
   06/26/2005 04:50:00      0.000     0.000    0.0438
   06/26/2005 04:55:00      0.000     0.000    0.0370
   06/26/2005 05:00:00      0.000     0.000    0.0316
   06/26/2005 05:05:00      0.000     0.000    0.0273
   06/26/2005 05:10:00      0.000     0.000    0.0238
   06/26/2005 05:15:00      1.200     0.120    0.0209
   06/26/2005 05:20:00      0.000     0.000    0.0201
   06/26/2005 05:25:00      0.000     0.000    0.0178
   06/26/2005 05:30:00      0.000     0.000    0.0159
   06/26/2005 05:35:00      0.000     0.000    0.0143
   06/26/2005 05:40:00      1.200     0.120    0.0130
   06/26/2005 05:45:00      2.400     0.240    0.0131
   06/26/2005 05:50:00      0.000     0.000    0.0145
   06/26/2005 05:55:00      6.000     0.600    0.0132
   06/26/2005 06:00:00      0.000     0.000    0.0190
   06/26/2005 06:05:00      1.200     0.120    0.0170
   06/26/2005 06:10:00      0.000     0.000    0.0168
   06/26/2005 06:15:00      0.000     0.000    0.0151
   06/26/2005 06:20:00      0.000     0.000    0.0137
   06/26/2005 06:25:00      0.000     0.000    0.0125
   06/26/2005 06:30:00      1.200     0.120    0.0115
   06/26/2005 06:35:00      0.000     0.000    0.0118
   06/26/2005 06:40:00      0.000     0.000    0.0109
   06/26/2005 06:45:00      0.000     0.000    0.0101
   06/26/2005 06:50:00      0.000     0.000    0.0093
   06/26/2005 06:55:00      0.000     0.000    0.0087
   06/26/2005 07:00:00      4.800     0.480    0.0081
   06/26/2005 07:05:00      1.200     0.120    0.0122
   06/26/2005 07:10:00      1.200     0.120    0.0125
   06/26/2005 07:15:00      3.600     0.360    0.0128
   06/26/2005 07:20:00      2.400     0.240    0.0157
   06/26/2005 07:25:00      6.000     0.600    0.0171
   06/26/2005 07:30:00      7.200     0.720    0.0231
   06/26/2005 07:35:00     12.000     1.200    0.0308
   06/26/2005 07:40:00     39.600     3.960    0.0464
   06/26/2005 07:45:00     40.800     4.080    0.1243
   06/26/2005 07:50:00     45.600     4.560    0.2085
   06/26/2005 07:55:00     34.800     3.480    0.2981
   06/26/2005 08:00:00     12.000     1.200    0.3311
   06/26/2005 08:05:00     21.600     2.160    0.2780
   06/26/2005 08:10:00     20.400     2.040    0.2753
   06/26/2005 08:15:00     14.400     1.440    0.2709
   06/26/2005 08:20:00     42.000     4.200    0.2499
   06/26/2005 08:25:00     27.600     2.760    0.3271
   06/26/2005 08:30:00     16.800     1.680    0.3364
   06/26/2005 08:35:00      7.200     0.720    0.3076
   06/26/2005 08:40:00      2.400     0.240    0.2584
   06/26/2005 08:45:00      2.400     0.240    0.2117
   06/26/2005 08:50:00      1.200     0.120    0.1797
   06/26/2005 08:55:00      1.200     0.120    0.1539
   06/26/2005 09:00:00      6.000     0.600    0.1350
   06/26/2005 09:05:00      7.200     0.720    0.1315
   06/26/2005 09:10:00      6.000     0.600    0.1314
   06/26/2005 09:15:00      2.400     0.240    0.1286
   06/26/2005 09:20:00      4.800     0.480    0.1183
   06/26/2005 09:25:00      4.800     0.480    0.1151
   06/26/2005 09:30:00      7.200     0.720    0.1125
   06/26/2005 09:35:00     15.600     1.560    0.1155
   06/26/2005 09:40:00     15.600     1.560    0.1374
   06/26/2005 09:45:00     12.000     1.200    0.1567
   06/26/2005 09:50:00     12.000     1.200    0.1637
   06/26/2005 09:55:00      4.800     0.480    0.1695
   06/26/2005 10:00:00     12.000     1.200    0.1557
   06/26/2005 10:05:00      8.400     0.840    0.1632
   06/26/2005 10:10:00      1.200     0.120    0.1601
   06/26/2005 10:15:00      2.400     0.240    0.1401
   06/26/2005 10:20:00      4.800     0.480    0.1277
   06/26/2005 10:25:00      3.600     0.360    0.1232
   06/26/2005 10:30:00      4.800     0.480    0.1169
   06/26/2005 10:35:00     15.600     1.560    0.1142
   06/26/2005 10:40:00     12.000     1.200    0.1364
   06/26/2005 10:45:00     18.000     1.800    0.1471
   06/26/2005 10:50:00     42.000     4.200    0.1717
   06/26/2005 10:55:00     16.800     1.680    0.2641
   06/26/2005 11:00:00     14.400     1.440    0.2614
   06/26/2005 11:05:00     40.800     4.080    0.2527
   06/26/2005 11:10:00     37.200     3.720    0.3326
   06/26/2005 11:15:00     46.800     4.680    0.3840
   06/26/2005 11:20:00     27.600     2.760    0.4599
   06/26/2005 11:25:00     31.200     3.120    0.4425
   06/26/2005 11:30:00     13.200     1.320    0.4465
   06/26/2005 11:35:00      1.200     0.120    0.3853
   06/26/2005 11:40:00      1.200     0.120    0.3065
   06/26/2005 11:45:00      0.000     0.000    0.2546
   06/26/2005 11:50:00      0.000     0.000    0.2152
   06/26/2005 11:55:00      0.000     0.000    0.1865
   06/26/2005 12:00:00      0.000     0.000    0.1648
   06/26/2005 12:05:00      0.000     0.000    0.1478
   06/26/2005 12:10:00      0.000     0.000    0.1342
   06/26/2005 12:15:00      0.000     0.000    0.1229
   06/26/2005 12:20:00      0.000     0.000    0.1134
   06/26/2005 12:25:00      0.000     0.000    0.1054
   06/26/2005 12:30:00      0.000     0.000    0.0983
   06/26/2005 12:35:00      0.000     0.000    0.0922
   06/26/2005 12:40:00      0.000     0.000    0.0868
   06/26/2005 12:45:00      0.000     0.000    0.0819
   06/26/2005 12:50:00      0.000     0.000    0.0775
   06/26/2005 12:55:00      0.000     0.000    0.0735
   06/26/2005 13:00:00      0.000     0.000    0.0699
   06/26/2005 13:05:00      0.000     0.000    0.0666
   06/26/2005 13:10:00      0.000     0.000    0.0635
   06/26/2005 13:15:00      0.000     0.000    0.0607
   06/26/2005 13:20:00      0.000     0.000    0.0580
   06/26/2005 13:25:00      0.000     0.000    0.0556
   06/26/2005 13:30:00      0.000     0.000    0.0533
   06/26/2005 13:35:00      0.000     0.000    0.0512
   06/26/2005 13:40:00      0.000     0.000    0.0491
   06/26/2005 13:45:00      0.000     0.000    0.0473
   06/26/2005 13:50:00      0.000     0.000    0.0455
   06/26/2005 13:55:00      0.000     0.000    0.0438
   06/26/2005 14:00:00      0.000     0.000    0.0422
   06/26/2005 14:05:00      0.000     0.000    0.0407
   06/26/2005 14:10:00      0.000     0.000    0.0393
   06/26/2005 14:15:00      0.000     0.000    0.0380
   06/26/2005 14:20:00      0.000     0.000    0.0367
   06/26/2005 14:25:00      0.000     0.000    0.0355
   06/26/2005 14:30:00      0.000     0.000    0.0343
   06/26/2005 14:35:00      0.000     0.000    0.0332
   06/26/2005 14:40:00      0.000     0.000    0.0322
   06/26/2005 14:45:00      0.000     0.000    0.0312
   06/26/2005 14:50:00      0.000     0.000    0.0302
   06/26/2005 14:55:00      0.000     0.000    0.0293
   06/26/2005 15:00:00      0.000     0.000    0.0285
   06/26/2005 15:05:00      0.000     0.000    0.0276
   06/26/2005 15:10:00      0.000     0.000    0.0268
   06/26/2005 15:15:00      0.000     0.000    0.0261
   06/26/2005 15:20:00      0.000     0.000    0.0253
   06/26/2005 15:25:00      0.000     0.000    0.0246
   06/26/2005 15:30:00      0.000     0.000    0.0239
   06/26/2005 15:35:00      0.000     0.000    0.0233
   06/26/2005 15:40:00      0.000     0.000    0.0227
   06/26/2005 15:45:00      0.000     0.000    0.0221
   06/26/2005 15:50:00      0.000     0.000    0.0215
   06/26/2005 15:55:00      0.000     0.000    0.0209
  
  
  <<< Subcatchment S3 >>>
  ---------------------------------------------------
  Date        Time        Precip.    Losses    Runoff
                            mm/hr     mm/hr       CMS
  ---------------------------------------------------
   06/26/2005 03:50:00      2.400     0.908    0.0000
   06/26/2005 03:55:00     10.800     3.907    0.0000
   06/26/2005 04:00:00     14.400     4.213    0.0013
   06/26/2005 04:05:00      2.400     0.531    0.0057
   06/26/2005 04:10:00      3.600     0.764    0.0043
   06/26/2005 04:15:00     31.200     6.229    0.0044
   06/26/2005 04:20:00     24.000     3.360    0.0258
   06/26/2005 04:25:00     10.800     1.512    0.0298
   06/26/2005 04:30:00      1.200     0.168    0.0201
   06/26/2005 04:35:00      0.000     0.000    0.0101
   06/26/2005 04:40:00      0.000     0.000    0.0058
   06/26/2005 04:45:00      0.000     0.000    0.0039
   06/26/2005 04:50:00      0.000     0.000    0.0029
   06/26/2005 04:55:00      0.000     0.000    0.0024
   06/26/2005 05:00:00      0.000     0.000    0.0020
   06/26/2005 05:05:00      0.000     0.000    0.0018
   06/26/2005 05:10:00      0.000     0.000    0.0016
   06/26/2005 05:15:00      1.200     0.168    0.0015
   06/26/2005 05:20:00      0.000     0.000    0.0018
   06/26/2005 05:25:00      0.000     0.000    0.0016
   06/26/2005 05:30:00      0.000     0.000    0.0014
   06/26/2005 05:35:00      0.000     0.000    0.0013
   06/26/2005 05:40:00      1.200     0.168    0.0013
   06/26/2005 05:45:00      2.400     0.336    0.0016
   06/26/2005 05:50:00      0.000     0.000    0.0023
   06/26/2005 05:55:00      6.000     0.840    0.0020
   06/26/2005 06:00:00      0.000     0.000    0.0047
   06/26/2005 06:05:00      1.200     0.168    0.0035
   06/26/2005 06:10:00      0.000     0.000    0.0033
   06/26/2005 06:15:00      0.000     0.000    0.0027
   06/26/2005 06:20:00      0.000     0.000    0.0023
   06/26/2005 06:25:00      0.000     0.000    0.0021
   06/26/2005 06:30:00      1.200     0.168    0.0019
   06/26/2005 06:35:00      0.000     0.000    0.0021
   06/26/2005 06:40:00      0.000     0.000    0.0019
   06/26/2005 06:45:00      0.000     0.000    0.0018
   06/26/2005 06:50:00      0.000     0.000    0.0016
   06/26/2005 06:55:00      0.000     0.000    0.0015
   06/26/2005 07:00:00      4.800     0.672    0.0014
   06/26/2005 07:05:00      1.200     0.168    0.0033
   06/26/2005 07:10:00      1.200     0.168    0.0032
   06/26/2005 07:15:00      3.600     0.504    0.0032
   06/26/2005 07:20:00      2.400     0.336    0.0045
   06/26/2005 07:25:00      6.000     0.840    0.0047
   06/26/2005 07:30:00      7.200     1.008    0.0072
   06/26/2005 07:35:00     12.000     1.680    0.0098
   06/26/2005 07:40:00     39.600     5.544    0.0154
   06/26/2005 07:45:00     40.800     5.712    0.0470
   06/26/2005 07:50:00     45.600     6.384    0.0634
   06/26/2005 07:55:00     34.800     4.872    0.0782
   06/26/2005 08:00:00     12.000     1.680    0.0744
   06/26/2005 08:05:00     21.600     3.024    0.0516
   06/26/2005 08:10:00     20.400     2.856    0.0562
   06/26/2005 08:15:00     14.400     2.016    0.0577
   06/26/2005 08:20:00     42.000     5.880    0.0528
   06/26/2005 08:25:00     27.600     3.864    0.0836
   06/26/2005 08:30:00     16.800     2.352    0.0793
   06/26/2005 08:35:00      7.200     1.008    0.0676
   06/26/2005 08:40:00      2.400     0.336    0.0540
   06/26/2005 08:45:00      2.400     0.336    0.0438
   06/26/2005 08:50:00      1.200     0.168    0.0382
   06/26/2005 08:55:00      1.200     0.168    0.0334
   06/26/2005 09:00:00      6.000     0.840    0.0300
   06/26/2005 09:05:00      7.200     1.008    0.0308
   06/26/2005 09:10:00      6.000     0.840    0.0321
   06/26/2005 09:15:00      2.400     0.336    0.0315
   06/26/2005 09:20:00      4.800     0.672    0.0278
   06/26/2005 09:25:00      4.800     0.672    0.0273
   06/26/2005 09:30:00      7.200     1.008    0.0266
   06/26/2005 09:35:00     15.600     2.184    0.0280
   06/26/2005 09:40:00     15.600     2.184    0.0364
   06/26/2005 09:45:00     12.000     1.680    0.0411
   06/26/2005 09:50:00     12.000     1.680    0.0399
   06/26/2005 09:55:00      4.800     0.672    0.0398
   06/26/2005 10:00:00     12.000     1.680    0.0331
   06/26/2005 10:05:00      8.400     1.176    0.0366
   06/26/2005 10:10:00      1.200     0.168    0.0349
   06/26/2005 10:15:00      2.400     0.336    0.0278
   06/26/2005 10:20:00      4.800     0.672    0.0249
   06/26/2005 10:25:00      3.600     0.504    0.0248
   06/26/2005 10:30:00      4.800     0.672    0.0236
   06/26/2005 10:35:00     15.600     2.184    0.0235
   06/26/2005 10:40:00     12.000     1.680    0.0329
   06/26/2005 10:45:00     18.000     2.520    0.0348
   06/26/2005 10:50:00     42.000     5.880    0.0420
   06/26/2005 10:55:00     16.800     2.352    0.0736
   06/26/2005 11:00:00     14.400     2.016    0.0579
   06/26/2005 11:05:00     40.800     5.712    0.0520
   06/26/2005 11:10:00     37.200     5.208    0.0810
   06/26/2005 11:15:00     46.800     6.552    0.0894
   06/26/2005 11:20:00     27.600     3.864    0.1075
   06/26/2005 11:25:00     31.200     4.368    0.0926
   06/26/2005 11:30:00     13.200     1.848    0.0949
   06/26/2005 11:35:00      1.200     0.168    0.0757
   06/26/2005 11:40:00      1.200     0.168    0.0566
   06/26/2005 11:45:00      0.000     0.000    0.0474
   06/26/2005 11:50:00      0.000     0.000    0.0405
   06/26/2005 11:55:00      0.000     0.000    0.0355
   06/26/2005 12:00:00      0.000     0.000    0.0315
   06/26/2005 12:05:00      0.000     0.000    0.0283
   06/26/2005 12:10:00      0.000     0.000    0.0256
   06/26/2005 12:15:00      0.000     0.000    0.0232
   06/26/2005 12:20:00      0.000     0.000    0.0212
   06/26/2005 12:25:00      0.000     0.000    0.0194
   06/26/2005 12:30:00      0.000     0.000    0.0178
   06/26/2005 12:35:00      0.000     0.000    0.0164
   06/26/2005 12:40:00      0.000     0.000    0.0152
   06/26/2005 12:45:00      0.000     0.000    0.0141
   06/26/2005 12:50:00      0.000     0.000    0.0131
   06/26/2005 12:55:00      0.000     0.000    0.0122
   06/26/2005 13:00:00      0.000     0.000    0.0113
   06/26/2005 13:05:00      0.000     0.000    0.0106
   06/26/2005 13:10:00      0.000     0.000    0.0099
   06/26/2005 13:15:00      0.000     0.000    0.0093
   06/26/2005 13:20:00      0.000     0.000    0.0087
   06/26/2005 13:25:00      0.000     0.000    0.0082
   06/26/2005 13:30:00      0.000     0.000    0.0078
   06/26/2005 13:35:00      0.000     0.000    0.0073
   06/26/2005 13:40:00      0.000     0.000    0.0069
   06/26/2005 13:45:00      0.000     0.000    0.0065
   06/26/2005 13:50:00      0.000     0.000    0.0062
   06/26/2005 13:55:00      0.000     0.000    0.0059
   06/26/2005 14:00:00      0.000     0.000    0.0056
   06/26/2005 14:05:00      0.000     0.000    0.0053
   06/26/2005 14:10:00      0.000     0.000    0.0050
   06/26/2005 14:15:00      0.000     0.000    0.0048
   06/26/2005 14:20:00      0.000     0.000    0.0046
   06/26/2005 14:25:00      0.000     0.000    0.0044
   06/26/2005 14:30:00      0.000     0.000    0.0042
   06/26/2005 14:35:00      0.000     0.000    0.0040
   06/26/2005 14:40:00      0.000     0.000    0.0038
   06/26/2005 14:45:00      0.000     0.000    0.0036
   06/26/2005 14:50:00      0.000     0.000    0.0035
   06/26/2005 14:55:00      0.000     0.000    0.0033
   06/26/2005 15:00:00      0.000     0.000    0.0032
   06/26/2005 15:05:00      0.000     0.000    0.0031
   06/26/2005 15:10:00      0.000     0.000    0.0030
   06/26/2005 15:15:00      0.000     0.000    0.0028
   06/26/2005 15:20:00      0.000     0.000    0.0027
   06/26/2005 15:25:00      0.000     0.000    0.0026
   06/26/2005 15:30:00      0.000     0.000    0.0025
   06/26/2005 15:35:00      0.000     0.000    0.0024
   06/26/2005 15:40:00      0.000     0.000    0.0024
   06/26/2005 15:45:00      0.000     0.000    0.0023
   06/26/2005 15:50:00      0.000     0.000    0.0022
   06/26/2005 15:55:00      0.000     0.000    0.0021
  
  
  <<< Subcatchment S4 >>>
  ---------------------------------------------------
  Date        Time        Precip.    Losses    Runoff
                            mm/hr     mm/hr       CMS
  ---------------------------------------------------
   06/26/2005 03:50:00      2.400     1.038    0.0000
   06/26/2005 03:55:00     10.800     4.465    0.0000
   06/26/2005 04:00:00     14.400     4.815    0.0016
   06/26/2005 04:05:00      2.400     0.606    0.0073
   06/26/2005 04:10:00      3.600     0.873    0.0072
   06/26/2005 04:15:00     31.200     7.119    0.0082
   06/26/2005 04:20:00     24.000     3.840    0.0416
   06/26/2005 04:25:00     10.800     1.728    0.0599
   06/26/2005 04:30:00      1.200     0.192    0.0508
   06/26/2005 04:35:00      0.000     0.000    0.0327
   06/26/2005 04:40:00      0.000     0.000    0.0217
   06/26/2005 04:45:00      0.000     0.000    0.0155
   06/26/2005 04:50:00      0.000     0.000    0.0116
   06/26/2005 04:55:00      0.000     0.000    0.0091
   06/26/2005 05:00:00      0.000     0.000    0.0073
   06/26/2005 05:05:00      0.000     0.000    0.0061
   06/26/2005 05:10:00      0.000     0.000    0.0052
   06/26/2005 05:15:00      1.200     0.192    0.0045
   06/26/2005 05:20:00      0.000     0.000    0.0047
   06/26/2005 05:25:00      0.000     0.000    0.0041
   06/26/2005 05:30:00      0.000     0.000    0.0037
   06/26/2005 05:35:00      0.000     0.000    0.0033
   06/26/2005 05:40:00      1.200     0.192    0.0031
   06/26/2005 05:45:00      2.400     0.384    0.0035
   06/26/2005 05:50:00      0.000     0.000    0.0046
   06/26/2005 05:55:00      6.000     0.960    0.0041
   06/26/2005 06:00:00      0.000     0.000    0.0080
   06/26/2005 06:05:00      1.200     0.192    0.0067
   06/26/2005 06:10:00      0.000     0.000    0.0067
   06/26/2005 06:15:00      0.000     0.000    0.0058
   06/26/2005 06:20:00      0.000     0.000    0.0051
   06/26/2005 06:25:00      0.000     0.000    0.0046
   06/26/2005 06:30:00      1.200     0.192    0.0042
   06/26/2005 06:35:00      0.000     0.000    0.0046
   06/26/2005 06:40:00      0.000     0.000    0.0042
   06/26/2005 06:45:00      0.000     0.000    0.0039
   06/26/2005 06:50:00      0.000     0.000    0.0036
   06/26/2005 06:55:00      0.000     0.000    0.0034
   06/26/2005 07:00:00      4.800     0.768    0.0032
   06/26/2005 07:05:00      1.200     0.192    0.0059
   06/26/2005 07:10:00      1.200     0.192    0.0061
   06/26/2005 07:15:00      3.600     0.576    0.0063
   06/26/2005 07:20:00      2.400     0.384    0.0083
   06/26/2005 07:25:00      6.000     0.960    0.0091
   06/26/2005 07:30:00      7.200     1.152    0.0131
   06/26/2005 07:35:00     12.000     1.920    0.0180
   06/26/2005 07:40:00     39.600     6.336    0.0280
   06/26/2005 07:45:00     40.800     6.528    0.0812
   06/26/2005 07:50:00     45.600     7.296    0.1241
   06/26/2005 07:55:00     34.800     5.568    0.1617
   06/26/2005 08:00:00     12.000     1.920    0.1615
   06/26/2005 08:05:00     21.600     3.456    0.1193
   06/26/2005 08:10:00     20.400     3.264    0.1206
   06/26/2005 08:15:00     14.400     2.304    0.1214
   06/26/2005 08:20:00     42.000     6.720    0.1128
   06/26/2005 08:25:00     27.600     4.416    0.1651
   06/26/2005 08:30:00     16.800     2.688    0.1677
   06/26/2005 08:35:00      7.200     1.152    0.1503
   06/26/2005 08:40:00      2.400     0.384    0.1258
   06/26/2005 08:45:00      2.400     0.384    0.1058
   06/26/2005 08:50:00      1.200     0.192    0.0947
   06/26/2005 08:55:00      1.200     0.192    0.0861
   06/26/2005 09:00:00      6.000     0.960    0.0803
   06/26/2005 09:05:00      7.200     1.152    0.0823
   06/26/2005 09:10:00      6.000     0.960    0.0854
   06/26/2005 09:15:00      2.400     0.384    0.0860
   06/26/2005 09:20:00      4.800     0.768    0.0814
   06/26/2005 09:25:00      4.800     0.768    0.0812
   06/26/2005 09:30:00      7.200     1.152    0.0810
   06/26/2005 09:35:00     15.600     2.496    0.0841
   06/26/2005 09:40:00     15.600     2.496    0.0993
   06/26/2005 09:45:00     12.000     1.920    0.1112
   06/26/2005 09:50:00     12.000     1.920    0.1137
   06/26/2005 09:55:00      4.800     0.768    0.1158
   06/26/2005 10:00:00     12.000     1.920    0.1057
   06/26/2005 10:05:00      8.400     1.344    0.1113
   06/26/2005 10:10:00      1.200     0.192    0.1094
   06/26/2005 10:15:00      2.400     0.384    0.0972
   06/26/2005 10:20:00      4.800     0.768    0.0911
   06/26/2005 10:25:00      3.600     0.576    0.0901
   06/26/2005 10:30:00      4.800     0.768    0.0875
   06/26/2005 10:35:00     15.600     2.496    0.0871
   06/26/2005 10:40:00     12.000     1.920    0.1028
   06/26/2005 10:45:00     18.000     2.880    0.1093
   06/26/2005 10:50:00     42.000     6.720    0.1245
   06/26/2005 10:55:00     16.800     2.688    0.1842
   06/26/2005 11:00:00     14.400     2.304    0.1703
   06/26/2005 11:05:00     40.800     6.528    0.1604
   06/26/2005 11:10:00     37.200     5.952    0.2114
   06/26/2005 11:15:00     46.800     7.488    0.2365
   06/26/2005 11:20:00     27.600     4.416    0.2770
   06/26/2005 11:25:00     31.200     4.992    0.2577
   06/26/2005 11:30:00     13.200     2.112    0.2615
   06/26/2005 11:35:00      1.200     0.192    0.2276
   06/26/2005 11:40:00      1.200     0.192    0.1891
   06/26/2005 11:45:00      0.000     0.000    0.1682
   06/26/2005 11:50:00      0.000     0.000    0.1530
   06/26/2005 11:55:00      0.000     0.000    0.1422
   06/26/2005 12:00:00      0.000     0.000    0.1337
   06/26/2005 12:05:00      0.000     0.000    0.1267
   06/26/2005 12:10:00      0.000     0.000    0.1207
   06/26/2005 12:15:00      0.000     0.000    0.1153
   06/26/2005 12:20:00      0.000     0.000    0.1105
   06/26/2005 12:25:00      0.000     0.000    0.1061
   06/26/2005 12:30:00      0.000     0.000    0.1020
   06/26/2005 12:35:00      0.000     0.000    0.0982
   06/26/2005 12:40:00      0.000     0.000    0.0946
   06/26/2005 12:45:00      0.000     0.000    0.0912
   06/26/2005 12:50:00      0.000     0.000    0.0881
   06/26/2005 12:55:00      0.000     0.000    0.0851
   06/26/2005 13:00:00      0.000     0.000    0.0822
   06/26/2005 13:05:00      0.000     0.000    0.0795
   06/26/2005 13:10:00      0.000     0.000    0.0770
   06/26/2005 13:15:00      0.000     0.000    0.0745
   06/26/2005 13:20:00      0.000     0.000    0.0722
   06/26/2005 13:25:00      0.000     0.000    0.0700
   06/26/2005 13:30:00      0.000     0.000    0.0678
   06/26/2005 13:35:00      0.000     0.000    0.0658
   06/26/2005 13:40:00      0.000     0.000    0.0638
   06/26/2005 13:45:00      0.000     0.000    0.0620
   06/26/2005 13:50:00      0.000     0.000    0.0602
   06/26/2005 13:55:00      0.000     0.000    0.0585
   06/26/2005 14:00:00      0.000     0.000    0.0568
   06/26/2005 14:05:00      0.000     0.000    0.0552
   06/26/2005 14:10:00      0.000     0.000    0.0537
   06/26/2005 14:15:00      0.000     0.000    0.0523
   06/26/2005 14:20:00      0.000     0.000    0.0508
   06/26/2005 14:25:00      0.000     0.000    0.0495
   06/26/2005 14:30:00      0.000     0.000    0.0482
   06/26/2005 14:35:00      0.000     0.000    0.0469
   06/26/2005 14:40:00      0.000     0.000    0.0457
   06/26/2005 14:45:00      0.000     0.000    0.0446
   06/26/2005 14:50:00      0.000     0.000    0.0434
   06/26/2005 14:55:00      0.000     0.000    0.0424
   06/26/2005 15:00:00      0.000     0.000    0.0413
   06/26/2005 15:05:00      0.000     0.000    0.0403
   06/26/2005 15:10:00      0.000     0.000    0.0393
   06/26/2005 15:15:00      0.000     0.000    0.0384
   06/26/2005 15:20:00      0.000     0.000    0.0375
   06/26/2005 15:25:00      0.000     0.000    0.0366
   06/26/2005 15:30:00      0.000     0.000    0.0357
   06/26/2005 15:35:00      0.000     0.000    0.0349
   06/26/2005 15:40:00      0.000     0.000    0.0341
   06/26/2005 15:45:00      0.000     0.000    0.0333
   06/26/2005 15:50:00      0.000     0.000    0.0326
   06/26/2005 15:55:00      0.000     0.000    0.0319
  
  
  <<< Subcatchment S5 >>>
  ---------------------------------------------------
  Date        Time        Precip.    Losses    Runoff
                            mm/hr     mm/hr       CMS
  ---------------------------------------------------
   06/26/2005 03:50:00      2.400     1.038    0.0000
   06/26/2005 03:55:00     10.800     4.465    0.0000
   06/26/2005 04:00:00     14.400     4.815    0.0016
   06/26/2005 04:05:00      2.400     0.606    0.0078
   06/26/2005 04:10:00      3.600     0.873    0.0082
   06/26/2005 04:15:00     31.200     7.119    0.0098
   06/26/2005 04:20:00     24.000     3.840    0.0476
   06/26/2005 04:25:00     10.800     1.728    0.0736
   06/26/2005 04:30:00      1.200     0.192    0.0682
   06/26/2005 04:35:00      0.000     0.000    0.0485
   06/26/2005 04:40:00      0.000     0.000    0.0348
   06/26/2005 04:45:00      0.000     0.000    0.0261
   06/26/2005 04:50:00      0.000     0.000    0.0202
   06/26/2005 04:55:00      0.000     0.000    0.0162
   06/26/2005 05:00:00      0.000     0.000    0.0132
   06/26/2005 05:05:00      0.000     0.000    0.0110
   06/26/2005 05:10:00      0.000     0.000    0.0094
   06/26/2005 05:15:00      1.200     0.192    0.0081
   06/26/2005 05:20:00      0.000     0.000    0.0081
   06/26/2005 05:25:00      0.000     0.000    0.0071
   06/26/2005 05:30:00      0.000     0.000    0.0062
   06/26/2005 05:35:00      0.000     0.000    0.0056
   06/26/2005 05:40:00      1.200     0.192    0.0051
   06/26/2005 05:45:00      2.400     0.384    0.0055
   06/26/2005 05:50:00      0.000     0.000    0.0067
   06/26/2005 05:55:00      6.000     0.960    0.0060
   06/26/2005 06:00:00      0.000     0.000    0.0105
   06/26/2005 06:05:00      1.200     0.192    0.0091
   06/26/2005 06:10:00      0.000     0.000    0.0091
   06/26/2005 06:15:00      0.000     0.000    0.0080
   06/26/2005 06:20:00      0.000     0.000    0.0072
   06/26/2005 06:25:00      0.000     0.000    0.0065
   06/26/2005 06:30:00      1.200     0.192    0.0059
   06/26/2005 06:35:00      0.000     0.000    0.0063
   06/26/2005 06:40:00      0.000     0.000    0.0058
   06/26/2005 06:45:00      0.000     0.000    0.0053
   06/26/2005 06:50:00      0.000     0.000    0.0050
   06/26/2005 06:55:00      0.000     0.000    0.0047
   06/26/2005 07:00:00      4.800     0.768    0.0044
   06/26/2005 07:05:00      1.200     0.192    0.0075
   06/26/2005 07:10:00      1.200     0.192    0.0078
   06/26/2005 07:15:00      3.600     0.576    0.0080
   06/26/2005 07:20:00      2.400     0.384    0.0104
   06/26/2005 07:25:00      6.000     0.960    0.0114
   06/26/2005 07:30:00      7.200     1.152    0.0161
   06/26/2005 07:35:00     12.000     1.920    0.0220
   06/26/2005 07:40:00     39.600     6.336    0.0341
   06/26/2005 07:45:00     40.800     6.528    0.0968
   06/26/2005 07:50:00     45.600     7.296    0.1548
   06/26/2005 07:55:00     34.800     5.568    0.2092
   06/26/2005 08:00:00     12.000     1.920    0.2168
   06/26/2005 08:05:00     21.600     3.456    0.1671
   06/26/2005 08:10:00     20.400     3.264    0.1655
   06/26/2005 08:15:00     14.400     2.304    0.1641
   06/26/2005 08:20:00     42.000     6.720    0.1514
   06/26/2005 08:25:00     27.600     4.416    0.2129
   06/26/2005 08:30:00     16.800     2.688    0.2183
   06/26/2005 08:35:00      7.200     1.152    0.1976
   06/26/2005 08:40:00      2.400     0.384    0.1656
   06/26/2005 08:45:00      2.400     0.384    0.1382
   06/26/2005 08:50:00      1.200     0.192    0.1219
   06/26/2005 08:55:00      1.200     0.192    0.1094
   06/26/2005 09:00:00      6.000     0.960    0.1008
   06/26/2005 09:05:00      7.200     1.152    0.1024
   06/26/2005 09:10:00      6.000     0.960    0.1058
   06/26/2005 09:15:00      2.400     0.384    0.1065
   06/26/2005 09:20:00      4.800     0.768    0.1010
   06/26/2005 09:25:00      4.800     0.768    0.1009
   06/26/2005 09:30:00      7.200     1.152    0.1008
   06/26/2005 09:35:00     15.600     2.496    0.1047
   06/26/2005 09:40:00     15.600     2.496    0.1231
   06/26/2005 09:45:00     12.000     1.920    0.1386
   06/26/2005 09:50:00     12.000     1.920    0.1435
   06/26/2005 09:55:00      4.800     0.768    0.1475
   06/26/2005 10:00:00     12.000     1.920    0.1365
   06/26/2005 10:05:00      8.400     1.344    0.1434
   06/26/2005 10:10:00      1.200     0.192    0.1416
   06/26/2005 10:15:00      2.400     0.384    0.1272
   06/26/2005 10:20:00      4.800     0.768    0.1194
   06/26/2005 10:25:00      3.600     0.576    0.1178
   06/26/2005 10:30:00      4.800     0.768    0.1146
   06/26/2005 10:35:00     15.600     2.496    0.1141
   06/26/2005 10:40:00     12.000     1.920    0.1328
   06/26/2005 10:45:00     18.000     2.880    0.1416
   06/26/2005 10:50:00     42.000     6.720    0.1610
   06/26/2005 10:55:00     16.800     2.688    0.2341
   06/26/2005 11:00:00     14.400     2.304    0.2242
   06/26/2005 11:05:00     40.800     6.528    0.2145
   06/26/2005 11:10:00     37.200     5.952    0.2766
   06/26/2005 11:15:00     46.800     7.488    0.3116
   06/26/2005 11:20:00     27.600     4.416    0.3650
   06/26/2005 11:25:00     31.200     4.992    0.3460
   06/26/2005 11:30:00     13.200     2.112    0.3504
   06/26/2005 11:35:00      1.200     0.192    0.3080
   06/26/2005 11:40:00      1.200     0.192    0.2573
   06/26/2005 11:45:00      0.000     0.000    0.2281
   06/26/2005 11:50:00      0.000     0.000    0.2068
   06/26/2005 11:55:00      0.000     0.000    0.1919
   06/26/2005 12:00:00      0.000     0.000    0.1806
   06/26/2005 12:05:00      0.000     0.000    0.1716
   06/26/2005 12:10:00      0.000     0.000    0.1640
   06/26/2005 12:15:00      0.000     0.000    0.1575
   06/26/2005 12:20:00      0.000     0.000    0.1517
   06/26/2005 12:25:00      0.000     0.000    0.1465
   06/26/2005 12:30:00      0.000     0.000    0.1417
   06/26/2005 12:35:00      0.000     0.000    0.1373
   06/26/2005 12:40:00      0.000     0.000    0.1331
   06/26/2005 12:45:00      0.000     0.000    0.1293
   06/26/2005 12:50:00      0.000     0.000    0.1256
   06/26/2005 12:55:00      0.000     0.000    0.1222
   06/26/2005 13:00:00      0.000     0.000    0.1189
   06/26/2005 13:05:00      0.000     0.000    0.1157
   06/26/2005 13:10:00      0.000     0.000    0.1127
   06/26/2005 13:15:00      0.000     0.000    0.1098
   06/26/2005 13:20:00      0.000     0.000    0.1071
   06/26/2005 13:25:00      0.000     0.000    0.1044
   06/26/2005 13:30:00      0.000     0.000    0.1019
   06/26/2005 13:35:00      0.000     0.000    0.0994
   06/26/2005 13:40:00      0.000     0.000    0.0971
   06/26/2005 13:45:00      0.000     0.000    0.0948
   06/26/2005 13:50:00      0.000     0.000    0.0926
   06/26/2005 13:55:00      0.000     0.000    0.0905
   06/26/2005 14:00:00      0.000     0.000    0.0884
   06/26/2005 14:05:00      0.000     0.000    0.0864
   06/26/2005 14:10:00      0.000     0.000    0.0845
   06/26/2005 14:15:00      0.000     0.000    0.0826
   06/26/2005 14:20:00      0.000     0.000    0.0808
   06/26/2005 14:25:00      0.000     0.000    0.0791
   06/26/2005 14:30:00      0.000     0.000    0.0774
   06/26/2005 14:35:00      0.000     0.000    0.0758
   06/26/2005 14:40:00      0.000     0.000    0.0742
   06/26/2005 14:45:00      0.000     0.000    0.0726
   06/26/2005 14:50:00      0.000     0.000    0.0711
   06/26/2005 14:55:00      0.000     0.000    0.0697
   06/26/2005 15:00:00      0.000     0.000    0.0683
   06/26/2005 15:05:00      0.000     0.000    0.0669
   06/26/2005 15:10:00      0.000     0.000    0.0656
   06/26/2005 15:15:00      0.000     0.000    0.0643
   06/26/2005 15:20:00      0.000     0.000    0.0630
   06/26/2005 15:25:00      0.000     0.000    0.0618
   06/26/2005 15:30:00      0.000     0.000    0.0606
   06/26/2005 15:35:00      0.000     0.000    0.0594
   06/26/2005 15:40:00      0.000     0.000    0.0583
   06/26/2005 15:45:00      0.000     0.000    0.0572
   06/26/2005 15:50:00      0.000     0.000    0.0561
   06/26/2005 15:55:00      0.000     0.000    0.0551
  
  
  <<< Subcatchment S6 >>>
  ---------------------------------------------------
  Date        Time        Precip.    Losses    Runoff
                            mm/hr     mm/hr       CMS
  ---------------------------------------------------
   06/26/2005 03:50:00      2.400     0.519    0.0000
   06/26/2005 03:55:00     10.800     2.233    0.0000
   06/26/2005 04:00:00     14.400     2.407    0.0017
   06/26/2005 04:05:00      2.400     0.303    0.0084
   06/26/2005 04:10:00      3.600     0.437    0.0097
   06/26/2005 04:15:00     31.200     3.559    0.0122
   06/26/2005 04:20:00     24.000     1.920    0.0569
   06/26/2005 04:25:00     10.800     0.864    0.0972
   06/26/2005 04:30:00      1.200     0.096    0.1035
   06/26/2005 04:35:00      0.000     0.000    0.0865
   06/26/2005 04:40:00      0.000     0.000    0.0711
   06/26/2005 04:45:00      0.000     0.000    0.0594
   06/26/2005 04:50:00      0.000     0.000    0.0502
   06/26/2005 04:55:00      0.000     0.000    0.0430
   06/26/2005 05:00:00      0.000     0.000    0.0371
   06/26/2005 05:05:00      0.000     0.000    0.0324
   06/26/2005 05:10:00      0.000     0.000    0.0284
   06/26/2005 05:15:00      1.200     0.096    0.0252
   06/26/2005 05:20:00      0.000     0.000    0.0241
   06/26/2005 05:25:00      0.000     0.000    0.0215
   06/26/2005 05:30:00      0.000     0.000    0.0193
   06/26/2005 05:35:00      0.000     0.000    0.0175
   06/26/2005 05:40:00      1.200     0.096    0.0158
   06/26/2005 05:45:00      2.400     0.192    0.0159
   06/26/2005 05:50:00      0.000     0.000    0.0173
   06/26/2005 05:55:00      6.000     0.480    0.0158
   06/26/2005 06:00:00      0.000     0.000    0.0219
   06/26/2005 06:05:00      1.200     0.096    0.0197
   06/26/2005 06:10:00      0.000     0.000    0.0194
   06/26/2005 06:15:00      0.000     0.000    0.0176
   06/26/2005 06:20:00      0.000     0.000    0.0160
   06/26/2005 06:25:00      0.000     0.000    0.0147
   06/26/2005 06:30:00      1.200     0.096    0.0135
   06/26/2005 06:35:00      0.000     0.000    0.0138
   06/26/2005 06:40:00      0.000     0.000    0.0127
   06/26/2005 06:45:00      0.000     0.000    0.0118
   06/26/2005 06:50:00      0.000     0.000    0.0109
   06/26/2005 06:55:00      0.000     0.000    0.0102
   06/26/2005 07:00:00      4.800     0.384    0.0095
   06/26/2005 07:05:00      1.200     0.096    0.0139
   06/26/2005 07:10:00      1.200     0.096    0.0141
   06/26/2005 07:15:00      3.600     0.288    0.0144
   06/26/2005 07:20:00      2.400     0.192    0.0175
   06/26/2005 07:25:00      6.000     0.480    0.0190
   06/26/2005 07:30:00      7.200     0.576    0.0252
   06/26/2005 07:35:00     12.000     0.960    0.0333
   06/26/2005 07:40:00     39.600     3.168    0.0497
   06/26/2005 07:45:00     40.800     3.264    0.1308
   06/26/2005 07:50:00     45.600     3.648    0.2205
   06/26/2005 07:55:00     34.800     2.784    0.3183
   06/26/2005 08:00:00     12.000     0.960    0.3585
   06/26/2005 08:05:00     21.600     1.728    0.3067
   06/26/2005 08:10:00     20.400     1.632    0.3051
   06/26/2005 08:15:00     14.400     1.152    0.3009
   06/26/2005 08:20:00     42.000     3.360    0.2785
   06/26/2005 08:25:00     27.600     2.208    0.3598
   06/26/2005 08:30:00     16.800     1.344    0.3702
   06/26/2005 08:35:00      7.200     0.576    0.3397
   06/26/2005 08:40:00      2.400     0.192    0.2863
   06/26/2005 08:45:00      2.400     0.192    0.2346
   06/26/2005 08:50:00      1.200     0.096    0.1983
   06/26/2005 08:55:00      1.200     0.096    0.1686
   06/26/2005 09:00:00      6.000     0.480    0.1464
   06/26/2005 09:05:00      7.200     0.576    0.1411
   06/26/2005 09:10:00      6.000     0.480    0.1397
   06/26/2005 09:15:00      2.400     0.192    0.1356
   06/26/2005 09:20:00      4.800     0.384    0.1236
   06/26/2005 09:25:00      4.800     0.384    0.1195
   06/26/2005 09:30:00      7.200     0.576    0.1160
   06/26/2005 09:35:00     15.600     1.248    0.1185
   06/26/2005 09:40:00     15.600     1.248    0.1410
   06/26/2005 09:45:00     12.000     0.960    0.1611
   06/26/2005 09:50:00     12.000     0.960    0.1684
   06/26/2005 09:55:00      4.800     0.384    0.1745
   06/26/2005 10:00:00     12.000     0.960    0.1600
   06/26/2005 10:05:00      8.400     0.672    0.1677
   06/26/2005 10:10:00      1.200     0.096    0.1643
   06/26/2005 10:15:00      2.400     0.192    0.1430
   06/26/2005 10:20:00      4.800     0.384    0.1294
   06/26/2005 10:25:00      3.600     0.288    0.1242
   06/26/2005 10:30:00      4.800     0.384    0.1171
   06/26/2005 10:35:00     15.600     1.248    0.1140
   06/26/2005 10:40:00     12.000     0.960    0.1369
   06/26/2005 10:45:00     18.000     1.440    0.1481
   06/26/2005 10:50:00     42.000     3.360    0.1737
   06/26/2005 10:55:00     16.800     1.344    0.2704
   06/26/2005 11:00:00     14.400     1.152    0.2696
   06/26/2005 11:05:00     40.800     3.264    0.2616
   06/26/2005 11:10:00     37.200     2.976    0.3459
   06/26/2005 11:15:00     46.800     3.744    0.4016
   06/26/2005 11:20:00     27.600     2.208    0.4833
   06/26/2005 11:25:00     31.200     2.496    0.4676
   06/26/2005 11:30:00     13.200     1.056    0.4724
   06/26/2005 11:35:00      1.200     0.096    0.4076
   06/26/2005 11:40:00      1.200     0.096    0.3224
   06/26/2005 11:45:00      0.000     0.000    0.2647
   06/26/2005 11:50:00      0.000     0.000    0.2204
   06/26/2005 11:55:00      0.000     0.000    0.1878
   06/26/2005 12:00:00      0.000     0.000    0.1630
   06/26/2005 12:05:00      0.000     0.000    0.1436
   06/26/2005 12:10:00      0.000     0.000    0.1281
   06/26/2005 12:15:00      0.000     0.000    0.1154
   06/26/2005 12:20:00      0.000     0.000    0.1048
   06/26/2005 12:25:00      0.000     0.000    0.0959
   06/26/2005 12:30:00      0.000     0.000    0.0882
   06/26/2005 12:35:00      0.000     0.000    0.0816
   06/26/2005 12:40:00      0.000     0.000    0.0757
   06/26/2005 12:45:00      0.000     0.000    0.0706
   06/26/2005 12:50:00      0.000     0.000    0.0661
   06/26/2005 12:55:00      0.000     0.000    0.0620
   06/26/2005 13:00:00      0.000     0.000    0.0583
   06/26/2005 13:05:00      0.000     0.000    0.0550
   06/26/2005 13:10:00      0.000     0.000    0.0519
   06/26/2005 13:15:00      0.000     0.000    0.0492
   06/26/2005 13:20:00      0.000     0.000    0.0466
   06/26/2005 13:25:00      0.000     0.000    0.0443
   06/26/2005 13:30:00      0.000     0.000    0.0421
   06/26/2005 13:35:00      0.000     0.000    0.0402
   06/26/2005 13:40:00      0.000     0.000    0.0383
   06/26/2005 13:45:00      0.000     0.000    0.0366
   06/26/2005 13:50:00      0.000     0.000    0.0350
   06/26/2005 13:55:00      0.000     0.000    0.0335
   06/26/2005 14:00:00      0.000     0.000    0.0321
   06/26/2005 14:05:00      0.000     0.000    0.0308
   06/26/2005 14:10:00      0.000     0.000    0.0295
   06/26/2005 14:15:00      0.000     0.000    0.0284
   06/26/2005 14:20:00      0.000     0.000    0.0273
   06/26/2005 14:25:00      0.000     0.000    0.0262
   06/26/2005 14:30:00      0.000     0.000    0.0252
   06/26/2005 14:35:00      0.000     0.000    0.0243
   06/26/2005 14:40:00      0.000     0.000    0.0234
   06/26/2005 14:45:00      0.000     0.000    0.0226
   06/26/2005 14:50:00      0.000     0.000    0.0218
   06/26/2005 14:55:00      0.000     0.000    0.0211
   06/26/2005 15:00:00      0.000     0.000    0.0204
   06/26/2005 15:05:00      0.000     0.000    0.0197
   06/26/2005 15:10:00      0.000     0.000    0.0191
   06/26/2005 15:15:00      0.000     0.000    0.0184
   06/26/2005 15:20:00      0.000     0.000    0.0179
   06/26/2005 15:25:00      0.000     0.000    0.0173
   06/26/2005 15:30:00      0.000     0.000    0.0168
   06/26/2005 15:35:00      0.000     0.000    0.0162
   06/26/2005 15:40:00      0.000     0.000    0.0158
   06/26/2005 15:45:00      0.000     0.000    0.0153
   06/26/2005 15:50:00      0.000     0.000    0.0148
   06/26/2005 15:55:00      0.000     0.000    0.0144
  
  
  <<< Subcatchment S7 >>>
  ---------------------------------------------------
  Date        Time        Precip.    Losses    Runoff
                            mm/hr     mm/hr       CMS
  ---------------------------------------------------
   06/26/2005 03:50:00      2.400     0.778    0.0000
   06/26/2005 03:55:00     10.800     3.349    0.0000
   06/26/2005 04:00:00     14.400     3.611    0.0016
   06/26/2005 04:05:00      2.400     0.455    0.0074
   06/26/2005 04:10:00      3.600     0.655    0.0074
   06/26/2005 04:15:00     31.200     5.339    0.0085
   06/26/2005 04:20:00     24.000     2.880    0.0425
   06/26/2005 04:25:00     10.800     1.296    0.0620
   06/26/2005 04:30:00      1.200     0.144    0.0532
   06/26/2005 04:35:00      0.000     0.000    0.0347
   06/26/2005 04:40:00      0.000     0.000    0.0233
   06/26/2005 04:45:00      0.000     0.000    0.0167
   06/26/2005 04:50:00      0.000     0.000    0.0126
   06/26/2005 04:55:00      0.000     0.000    0.0098
   06/26/2005 05:00:00      0.000     0.000    0.0079
   06/26/2005 05:05:00      0.000     0.000    0.0065
   06/26/2005 05:10:00      0.000     0.000    0.0055
   06/26/2005 05:15:00      1.200     0.144    0.0047
   06/26/2005 05:20:00      0.000     0.000    0.0049
   06/26/2005 05:25:00      0.000     0.000    0.0043
   06/26/2005 05:30:00      0.000     0.000    0.0038
   06/26/2005 05:35:00      0.000     0.000    0.0034
   06/26/2005 05:40:00      1.200     0.144    0.0031
   06/26/2005 05:45:00      2.400     0.288    0.0035
   06/26/2005 05:50:00      0.000     0.000    0.0046
   06/26/2005 05:55:00      6.000     0.720    0.0041
   06/26/2005 06:00:00      0.000     0.000    0.0080
   06/26/2005 06:05:00      1.200     0.144    0.0067
   06/26/2005 06:10:00      0.000     0.000    0.0067
   06/26/2005 06:15:00      0.000     0.000    0.0058
   06/26/2005 06:20:00      0.000     0.000    0.0051
   06/26/2005 06:25:00      0.000     0.000    0.0045
   06/26/2005 06:30:00      1.200     0.144    0.0041
   06/26/2005 06:35:00      0.000     0.000    0.0044
   06/26/2005 06:40:00      0.000     0.000    0.0040
   06/26/2005 06:45:00      0.000     0.000    0.0036
   06/26/2005 06:50:00      0.000     0.000    0.0034
   06/26/2005 06:55:00      0.000     0.000    0.0031
   06/26/2005 07:00:00      4.800     0.576    0.0029
   06/26/2005 07:05:00      1.200     0.144    0.0056
   06/26/2005 07:10:00      1.200     0.144    0.0058
   06/26/2005 07:15:00      3.600     0.432    0.0060
   06/26/2005 07:20:00      2.400     0.288    0.0079
   06/26/2005 07:25:00      6.000     0.720    0.0087
   06/26/2005 07:30:00      7.200     0.864    0.0128
   06/26/2005 07:35:00     12.000     1.440    0.0177
   06/26/2005 07:40:00     39.600     4.752    0.0278
   06/26/2005 07:45:00     40.800     4.896    0.0820
   06/26/2005 07:50:00     45.600     5.472    0.1264
   06/26/2005 07:55:00     34.800     4.176    0.1651
   06/26/2005 08:00:00     12.000     1.440    0.1645
   06/26/2005 08:05:00     21.600     2.592    0.1198
   06/26/2005 08:10:00     20.400     2.448    0.1193
   06/26/2005 08:15:00     14.400     1.728    0.1182
   06/26/2005 08:20:00     42.000     5.040    0.1075
   06/26/2005 08:25:00     27.600     3.312    0.1586
   06/26/2005 08:30:00     16.800     2.016    0.1590
   06/26/2005 08:35:00      7.200     0.864    0.1389
   06/26/2005 08:40:00      2.400     0.288    0.1114
   06/26/2005 08:45:00      2.400     0.288    0.0889
   06/26/2005 08:50:00      1.200     0.144    0.0758
   06/26/2005 08:55:00      1.200     0.144    0.0656
   06/26/2005 09:00:00      6.000     0.720    0.0585
   06/26/2005 09:05:00      7.200     0.864    0.0594
   06/26/2005 09:10:00      6.000     0.720    0.0615
   06/26/2005 09:15:00      2.400     0.288    0.0611
   06/26/2005 09:20:00      4.800     0.576    0.0558
   06/26/2005 09:25:00      4.800     0.576    0.0549
   06/26/2005 09:30:00      7.200     0.864    0.0540
   06/26/2005 09:35:00     15.600     1.872    0.0565
   06/26/2005 09:40:00     15.600     1.872    0.0708
   06/26/2005 09:45:00     12.000     1.440    0.0818
   06/26/2005 09:50:00     12.000     1.440    0.0833
   06/26/2005 09:55:00      4.800     0.576    0.0845
   06/26/2005 10:00:00     12.000     1.440    0.0737
   06/26/2005 10:05:00      8.400     1.008    0.0783
[...]
   06/26/2005 15:15:00      0.515     1.545     0.262     0.033
   06/26/2005 15:20:00      0.502     1.532     0.259     0.032
   06/26/2005 15:25:00      0.490     1.520     0.256     0.032
   06/26/2005 15:30:00      0.478     1.509     0.253     0.031
   06/26/2005 15:35:00      0.466     1.497     0.250     0.031
   06/26/2005 15:40:00      0.455     1.487     0.247     0.030
   06/26/2005 15:45:00      0.445     1.476     0.245     0.030
   06/26/2005 15:50:00      0.434     1.466     0.242     0.029
   06/26/2005 15:55:00      0.424     1.455     0.239     0.029
  
  
  <<< Link C24 >>>
  ----------------------------------------------------------------
                             Flow  Velocity     Depth  Capacity/
  Date        Time            CMS     m/sec    meters   Setting 
  ----------------------------------------------------------------
   06/26/2005 03:50:00      0.000     0.000     0.000     0.000
   06/26/2005 03:55:00      0.000     0.000     0.002     0.000
   06/26/2005 04:00:00      0.001     0.392     0.010     0.002
   06/26/2005 04:05:00      0.004     0.691     0.028     0.007
   06/26/2005 04:10:00      0.009     0.732     0.044     0.013
   06/26/2005 04:15:00      0.011     0.705     0.051     0.017
   06/26/2005 04:20:00      0.041     1.140     0.089     0.038
   06/26/2005 04:25:00      0.088     1.331     0.134     0.070
   06/26/2005 04:30:00      0.105     1.364     0.149     0.081
   06/26/2005 04:35:00      0.095     1.326     0.142     0.076
   06/26/2005 04:40:00      0.080     1.278     0.129     0.066
   06/26/2005 04:45:00      0.067     1.230     0.118     0.058
   06/26/2005 04:50:00      0.058     1.190     0.108     0.051
   06/26/2005 04:55:00      0.050     1.145     0.100     0.046
   06/26/2005 05:00:00      0.043     1.105     0.094     0.041
   06/26/2005 05:05:00      0.038     1.069     0.088     0.037
   06/26/2005 05:10:00      0.033     1.029     0.083     0.034
   06/26/2005 05:15:00      0.030     0.991     0.078     0.032
   06/26/2005 05:20:00      0.028     0.974     0.075     0.030
   06/26/2005 05:25:00      0.026     0.949     0.073     0.028
   06/26/2005 05:30:00      0.023     0.917     0.069     0.026
   06/26/2005 05:35:00      0.021     0.893     0.066     0.025
   06/26/2005 05:40:00      0.019     0.866     0.063     0.023
   06/26/2005 05:45:00      0.018     0.860     0.062     0.022
   06/26/2005 05:50:00      0.019     0.882     0.062     0.023
   06/26/2005 05:55:00      0.019     0.867     0.063     0.023
   06/26/2005 06:00:00      0.022     0.923     0.067     0.025
   06/26/2005 06:05:00      0.023     0.915     0.070     0.027
   06/26/2005 06:10:00      0.022     0.881     0.069     0.026
   06/26/2005 06:15:00      0.021     0.859     0.067     0.025
   06/26/2005 06:20:00      0.019     0.833     0.065     0.024
   06/26/2005 06:25:00      0.017     0.811     0.062     0.022
   06/26/2005 06:30:00      0.016     0.791     0.060     0.021
   06/26/2005 06:35:00      0.016     0.793     0.058     0.021
   06/26/2005 06:40:00      0.015     0.785     0.057     0.020
   06/26/2005 06:45:00      0.014     0.764     0.056     0.019
   06/26/2005 06:50:00      0.013     0.748     0.054     0.018
   06/26/2005 06:55:00      0.012     0.734     0.052     0.017
   06/26/2005 07:00:00      0.011     0.722     0.050     0.017
   06/26/2005 07:05:00      0.014     0.784     0.053     0.018
   06/26/2005 07:10:00      0.016     0.818     0.058     0.020
   06/26/2005 07:15:00      0.016     0.802     0.060     0.021
   06/26/2005 07:20:00      0.018     0.835     0.063     0.023
   06/26/2005 07:25:00      0.020     0.863     0.067     0.025
   06/26/2005 07:30:00      0.025     0.917     0.073     0.029
   06/26/2005 07:35:00      0.033     1.001     0.083     0.035
   06/26/2005 07:40:00      0.047     1.117     0.099     0.045
   06/26/2005 07:45:00      0.114     1.489     0.148     0.080
   06/26/2005 07:50:00      0.209     1.728     0.203     0.127
   06/26/2005 07:55:00      0.313     1.948     0.248     0.169
   06/26/2005 08:00:00      0.372     2.053     0.270     0.191
   06/26/2005 08:05:00      0.342     2.006     0.258     0.179
   06/26/2005 08:10:00      0.333     2.023     0.252     0.173
   06/26/2005 08:15:00      0.331     2.021     0.252     0.172
   06/26/2005 08:20:00      0.314     1.982     0.245     0.166
   06/26/2005 08:25:00      0.379     2.117     0.268     0.188
   06/26/2005 08:30:00      0.407     2.131     0.280     0.201
   06/26/2005 08:35:00      0.386     2.092     0.274     0.194
   06/26/2005 08:40:00      0.337     2.009     0.256     0.177
   06/26/2005 08:45:00      0.284     1.909     0.235     0.157
   06/26/2005 08:50:00      0.243     1.822     0.218     0.141
   06/26/2005 08:55:00      0.211     1.738     0.204     0.128
   06/26/2005 09:00:00      0.186     1.669     0.192     0.118
   06/26/2005 09:05:00      0.177     1.645     0.187     0.113
   06/26/2005 09:10:00      0.175     1.636     0.187     0.112
   06/26/2005 09:15:00      0.172     1.619     0.186     0.112
   06/26/2005 09:20:00      0.162     1.580     0.181     0.108
   06/26/2005 09:25:00      0.156     1.565     0.177     0.105
   06/26/2005 09:30:00      0.152     1.554     0.176     0.103
   06/26/2005 09:35:00      0.154     1.560     0.177     0.104
   06/26/2005 09:40:00      0.173     1.625     0.186     0.112
   06/26/2005 09:45:00      0.196     1.681     0.199     0.123
   06/26/2005 09:50:00      0.209     1.702     0.205     0.129
   06/26/2005 09:55:00      0.217     1.725     0.209     0.132
   06/26/2005 10:00:00      0.208     1.699     0.205     0.129
   06/26/2005 10:05:00      0.211     1.722     0.206     0.129
   06/26/2005 10:10:00      0.212     1.719     0.206     0.130
   06/26/2005 10:15:00      0.195     1.669     0.198     0.123
   06/26/2005 10:20:00      0.179     1.633     0.190     0.115
   06/26/2005 10:25:00      0.172     1.619     0.186     0.112
   06/26/2005 10:30:00      0.165     1.598     0.182     0.109
   06/26/2005 10:35:00      0.161     1.587     0.180     0.107
   06/26/2005 10:40:00      0.180     1.651     0.189     0.114
   06/26/2005 10:45:00      0.196     1.683     0.198     0.122
   06/26/2005 10:50:00      0.220     1.746     0.210     0.133
   06/26/2005 10:55:00      0.309     1.952     0.246     0.167
   06/26/2005 11:00:00      0.333     1.965     0.257     0.178
   06/26/2005 11:05:00      0.329     1.971     0.255     0.175
   06/26/2005 11:10:00      0.402     2.122     0.279     0.199
   06/26/2005 11:15:00      0.471     2.215     0.303     0.224
   06/26/2005 11:20:00      0.559     2.341     0.329     0.251
   06/26/2005 11:25:00      0.566     2.345     0.332     0.254
   06/26/2005 11:30:00      0.573     2.367     0.332     0.255
   06/26/2005 11:35:00      0.522     2.296     0.318     0.239
   06/26/2005 11:40:00      0.439     2.177     0.291     0.212
   06/26/2005 11:45:00      0.374     2.073     0.269     0.190
   06/26/2005 11:50:00      0.324     1.983     0.251     0.172
   06/26/2005 11:55:00      0.286     1.907     0.237     0.158
   06/26/2005 12:00:00      0.258     1.841     0.225     0.147
   06/26/2005 12:05:00      0.235     1.786     0.216     0.139
   06/26/2005 12:10:00      0.217     1.737     0.208     0.131
   06/26/2005 12:15:00      0.202     1.696     0.201     0.125
   06/26/2005 12:20:00      0.189     1.661     0.195     0.120
   06/26/2005 12:25:00      0.178     1.629     0.189     0.115
   06/26/2005 12:30:00      0.168     1.602     0.184     0.111
   06/26/2005 12:35:00      0.160     1.577     0.180     0.107
   06/26/2005 12:40:00      0.153     1.555     0.176     0.103
   06/26/2005 12:45:00      0.146     1.534     0.172     0.100
   06/26/2005 12:50:00      0.140     1.514     0.169     0.097
   06/26/2005 12:55:00      0.135     1.496     0.166     0.095
   06/26/2005 13:00:00      0.130     1.479     0.163     0.092
   06/26/2005 13:05:00      0.125     1.463     0.160     0.090
   06/26/2005 13:10:00      0.121     1.448     0.157     0.088
   06/26/2005 13:15:00      0.117     1.434     0.155     0.085
   06/26/2005 13:20:00      0.113     1.420     0.152     0.084
   06/26/2005 13:25:00      0.109     1.405     0.150     0.082
   06/26/2005 13:30:00      0.106     1.392     0.148     0.080
   06/26/2005 13:35:00      0.103     1.379     0.145     0.078
   06/26/2005 13:40:00      0.100     1.366     0.143     0.077
   06/26/2005 13:45:00      0.097     1.354     0.141     0.075
   06/26/2005 13:50:00      0.094     1.342     0.140     0.074
   06/26/2005 13:55:00      0.092     1.331     0.138     0.072
   06/26/2005 14:00:00      0.089     1.320     0.136     0.071
   06/26/2005 14:05:00      0.087     1.310     0.134     0.070
   06/26/2005 14:10:00      0.085     1.301     0.133     0.068
   06/26/2005 14:15:00      0.082     1.291     0.131     0.067
   06/26/2005 14:20:00      0.080     1.281     0.129     0.066
   06/26/2005 14:25:00      0.078     1.272     0.128     0.065
   06/26/2005 14:30:00      0.076     1.262     0.126     0.064
   06/26/2005 14:35:00      0.075     1.253     0.125     0.063
   06/26/2005 14:40:00      0.073     1.244     0.123     0.062
   06/26/2005 14:45:00      0.071     1.236     0.122     0.061
   06/26/2005 14:50:00      0.070     1.227     0.120     0.060
   06/26/2005 14:55:00      0.068     1.219     0.119     0.059
   06/26/2005 15:00:00      0.066     1.211     0.118     0.058
   06/26/2005 15:05:00      0.065     1.204     0.117     0.057
   06/26/2005 15:10:00      0.064     1.197     0.115     0.056
   06/26/2005 15:15:00      0.062     1.189     0.114     0.055
   06/26/2005 15:20:00      0.061     1.182     0.113     0.054
   06/26/2005 15:25:00      0.060     1.176     0.112     0.053
   06/26/2005 15:30:00      0.058     1.169     0.111     0.052
   06/26/2005 15:35:00      0.057     1.162     0.109     0.052
   06/26/2005 15:40:00      0.056     1.155     0.108     0.051
   06/26/2005 15:45:00      0.055     1.147     0.107     0.050
   06/26/2005 15:50:00      0.054     1.140     0.106     0.050
   06/26/2005 15:55:00      0.053     1.133     0.105     0.049
  
  
  <<< Link C22 >>>
  ----------------------------------------------------------------
                             Flow  Velocity     Depth  Capacity/
  Date        Time            CMS     m/sec    meters   Setting 
  ----------------------------------------------------------------
   06/26/2005 03:50:00      0.000     0.000     0.036     0.007
   06/26/2005 03:55:00      0.000     0.001     0.029     0.005
   06/26/2005 04:00:00      0.000     0.041     0.027     0.004
   06/26/2005 04:05:00      0.003     0.346     0.033     0.006
   06/26/2005 04:10:00      0.009     0.667     0.041     0.008
   06/26/2005 04:15:00      0.012     0.719     0.047     0.010
   06/26/2005 04:20:00      0.040     1.192     0.077     0.022
   06/26/2005 04:25:00      0.093     1.450     0.120     0.042
   06/26/2005 04:30:00      0.116     1.326     0.148     0.057
   06/26/2005 04:35:00      0.111     1.193     0.154     0.060
   06/26/2005 04:40:00      0.097     1.137     0.146     0.056
   06/26/2005 04:45:00      0.085     1.117     0.135     0.050
   06/26/2005 04:50:00      0.075     1.099     0.125     0.044
   06/26/2005 04:55:00      0.067     1.086     0.117     0.040
   06/26/2005 05:00:00      0.060     1.067     0.110     0.036
   06/26/2005 05:05:00      0.054     1.043     0.103     0.033
   06/26/2005 05:10:00      0.048     1.021     0.098     0.031
   06/26/2005 05:15:00      0.044     1.001     0.093     0.028
   06/26/2005 05:20:00      0.041     1.000     0.089     0.027
   06/26/2005 05:25:00      0.038     0.990     0.086     0.025
   06/26/2005 05:30:00      0.035     0.965     0.082     0.024
   06/26/2005 05:35:00      0.032     0.938     0.079     0.022
   06/26/2005 05:40:00      0.030     0.915     0.076     0.021
   06/26/2005 05:45:00      0.029     0.914     0.074     0.020
   06/26/2005 05:50:00      0.029     0.942     0.073     0.020
   06/26/2005 05:55:00      0.029     0.931     0.073     0.020
   06/26/2005 06:00:00      0.032     0.987     0.075     0.021
   06/26/2005 06:05:00      0.033     0.995     0.077     0.022
   06/26/2005 06:10:00      0.032     0.946     0.078     0.022
   06/26/2005 06:15:00      0.030     0.909     0.077     0.022
   06/26/2005 06:20:00      0.028     0.873     0.075     0.021
   06/26/2005 06:25:00      0.026     0.848     0.073     0.020
   06/26/2005 06:30:00      0.024     0.829     0.070     0.019
   06/26/2005 06:35:00      0.024     0.834     0.069     0.018
   06/26/2005 06:40:00      0.023     0.829     0.067     0.018
   06/26/2005 06:45:00      0.021     0.809     0.065     0.017
   06/26/2005 06:50:00      0.020     0.791     0.064     0.016
   06/26/2005 06:55:00      0.019     0.777     0.062     0.016
   06/26/2005 07:00:00      0.018     0.764     0.060     0.015
   06/26/2005 07:05:00      0.020     0.840     0.062     0.016
   06/26/2005 07:10:00      0.023     0.883     0.064     0.017
   06/26/2005 07:15:00      0.023     0.865     0.066     0.017
   06/26/2005 07:20:00      0.025     0.891     0.068     0.018
   06/26/2005 07:25:00      0.028     0.915     0.072     0.020
   06/26/2005 07:30:00      0.033     0.977     0.077     0.022
   06/26/2005 07:35:00      0.042     1.065     0.086     0.025
   06/26/2005 07:40:00      0.058     1.180     0.100     0.032
   06/26/2005 07:45:00      0.127     1.586     0.140     0.052
   06/26/2005 07:50:00      0.238     1.813     0.197     0.085
   06/26/2005 07:55:00      0.362     1.929     0.251     0.122
   06/26/2005 08:00:00      0.443     1.965     0.286     0.147
   06/26/2005 08:05:00      0.425     1.882     0.286     0.147
   06/26/2005 08:10:00      0.424     1.947     0.279     0.141
   06/26/2005 08:15:00      0.429     1.983     0.277     0.140
   06/26/2005 08:20:00      0.413     1.954     0.273     0.137
   06/26/2005 08:25:00      0.489     2.151     0.287     0.148
   06/26/2005 08:30:00      0.528     2.140     0.304     0.160
   06/26/2005 08:35:00      0.509     2.076     0.303     0.159
   06/26/2005 08:40:00      0.455     1.994     0.288     0.148
   06/26/2005 08:45:00      0.392     1.912     0.267     0.133
   06/26/2005 08:50:00      0.340     1.853     0.247     0.119
   06/26/2005 08:55:00      0.298     1.790     0.231     0.108
   06/26/2005 09:00:00      0.264     1.735     0.217     0.099
   06/26/2005 09:05:00      0.249     1.731     0.209     0.093
   06/26/2005 09:10:00      0.243     1.731     0.205     0.091
   06/26/2005 09:15:00      0.236     1.709     0.203     0.090
   06/26/2005 09:20:00      0.222     1.658     0.199     0.087
   06/26/2005 09:25:00      0.213     1.642     0.195     0.084
   06/26/2005 09:30:00      0.207     1.631     0.192     0.082
   06/26/2005 09:35:00      0.207     1.640     0.191     0.082
   06/26/2005 09:40:00      0.228     1.720     0.198     0.086
   06/26/2005 09:45:00      0.255     1.767     0.209     0.094
   06/26/2005 09:50:00      0.269     1.759     0.218     0.099
   06/26/2005 09:55:00      0.279     1.763     0.223     0.103
   06/26/2005 10:00:00      0.270     1.718     0.222     0.102
   06/26/2005 10:05:00      0.274     1.755     0.221     0.102
   06/26/2005 10:10:00      0.275     1.756     0.222     0.102
   06/26/2005 10:15:00      0.256     1.692     0.216     0.098
   06/26/2005 10:20:00      0.238     1.662     0.208     0.093
   06/26/2005 10:25:00      0.228     1.669     0.202     0.089
   06/26/2005 10:30:00      0.220     1.659     0.198     0.086
   06/26/2005 10:35:00      0.215     1.655     0.195     0.084
   06/26/2005 10:40:00      0.235     1.741     0.200     0.088
   06/26/2005 10:45:00      0.253     1.765     0.209     0.093
   06/26/2005 10:50:00      0.282     1.821     0.220     0.101
   06/26/2005 10:55:00      0.382     2.041     0.251     0.122
   06/26/2005 11:00:00      0.418     1.982     0.272     0.137
   06/26/2005 11:05:00      0.419     1.960     0.275     0.139
   06/26/2005 11:10:00      0.505     2.166     0.292     0.151
   06/26/2005 11:15:00      0.592     2.243     0.319     0.171
   06/26/2005 11:20:00      0.700     2.358     0.347     0.193
   06/26/2005 11:25:00      0.723     2.324     0.358     0.202
   06/26/2005 11:30:00      0.740     2.368     0.359     0.203
   06/26/2005 11:35:00      0.689     2.293     0.349     0.195
   06/26/2005 11:40:00      0.593     2.189     0.325     0.176
   06/26/2005 11:45:00      0.514     2.126     0.300     0.157
   06/26/2005 11:50:00      0.450     2.066     0.279     0.142
   06/26/2005 11:55:00      0.400     2.010     0.262     0.129
   06/26/2005 12:00:00      0.361     1.962     0.248     0.120
   06/26/2005 12:05:00      0.330     1.915     0.237     0.112
   06/26/2005 12:10:00      0.304     1.876     0.227     0.105
   06/26/2005 12:15:00      0.283     1.843     0.218     0.100
   06/26/2005 12:20:00      0.265     1.812     0.211     0.095
   06/26/2005 12:25:00      0.249     1.784     0.205     0.091
   06/26/2005 12:30:00      0.236     1.759     0.199     0.087
   06/26/2005 12:35:00      0.224     1.737     0.194     0.084
   06/26/2005 12:40:00      0.214     1.714     0.189     0.081
   06/26/2005 12:45:00      0.205     1.693     0.185     0.078
   06/26/2005 12:50:00      0.196     1.674     0.181     0.076
   06/26/2005 12:55:00      0.189     1.656     0.178     0.074
   06/26/2005 13:00:00      0.182     1.641     0.174     0.072
   06/26/2005 13:05:00      0.176     1.629     0.171     0.070
   06/26/2005 13:10:00      0.170     1.617     0.168     0.068
   06/26/2005 13:15:00      0.164     1.604     0.165     0.067
   06/26/2005 13:20:00      0.159     1.592     0.163     0.065
   06/26/2005 13:25:00      0.155     1.580     0.160     0.064
   06/26/2005 13:30:00      0.150     1.569     0.158     0.062
   06/26/2005 13:35:00      0.146     1.558     0.156     0.061
   06/26/2005 13:40:00      0.142     1.548     0.153     0.060
   06/26/2005 13:45:00      0.139     1.538     0.151     0.058
   06/26/2005 13:50:00      0.135     1.528     0.149     0.057
   06/26/2005 13:55:00      0.132     1.519     0.147     0.056
   06/26/2005 14:00:00      0.129     1.510     0.146     0.055
   06/26/2005 14:05:00      0.126     1.501     0.144     0.054
   06/26/2005 14:10:00      0.123     1.493     0.142     0.053
   06/26/2005 14:15:00      0.120     1.485     0.141     0.052
   06/26/2005 14:20:00      0.117     1.476     0.139     0.052
   06/26/2005 14:25:00      0.115     1.467     0.137     0.051
   06/26/2005 14:30:00      0.112     1.459     0.136     0.050
   06/26/2005 14:35:00      0.110     1.450     0.135     0.049
   06/26/2005 14:40:00      0.108     1.442     0.133     0.048
   06/26/2005 14:45:00      0.105     1.434     0.132     0.048
   06/26/2005 14:50:00      0.103     1.426     0.130     0.047
   06/26/2005 14:55:00      0.101     1.418     0.129     0.046
   06/26/2005 15:00:00      0.099     1.410     0.128     0.046
   06/26/2005 15:05:00      0.097     1.403     0.127     0.045
   06/26/2005 15:10:00      0.095     1.396     0.125     0.044
   06/26/2005 15:15:00      0.094     1.388     0.124     0.044
   06/26/2005 15:20:00      0.092     1.381     0.123     0.043
   06/26/2005 15:25:00      0.090     1.375     0.122     0.043
   06/26/2005 15:30:00      0.089     1.368     0.121     0.042
   06/26/2005 15:35:00      0.087     1.362     0.120     0.041
   06/26/2005 15:40:00      0.085     1.356     0.119     0.041
   06/26/2005 15:45:00      0.084     1.350     0.118     0.040
   06/26/2005 15:50:00      0.083     1.345     0.117     0.040
   06/26/2005 15:55:00      0.081     1.339     0.116     0.039
  

  Analysis begun on:  Wed Mar 27 17:36:39 2019
  Analysis ended on:  Wed Mar 27 17:36:39 2019
  Total elapsed time: < 1 sec