
  EPA STORM WATER MANAGEMENT MODEL - VERSION 5.1 (Build 5.1.012)
  --------------------------------------------------------------

  
  *************
  Element Count
  *************
  Number of rain gages ...... 1
  Number of subcatchments ... 15
  Number of nodes ........... 25
  Number of links ........... 24
  Number of pollutants ...... 0
  Number of land uses ....... 0
  
  
  ****************
  Raingage Summary
  ****************
                                                      Data       Recording
  Name                 Data Source                    Type       Interval 
  ------------------------------------------------------------------------
  1                    20050626                       VOLUME       5 min.
  
  
  ********************
  Subcatchment Summary
  ********************
  Name                       Area     Width   %Imperv    %Slope Rain Gage            Outlet              
  -----------------------------------------------------------------------------------------------------------
  S1                         2.21    400.00     80.00    0.0500 1                    J1                  
  S2                         7.25    400.00     50.00    0.0500 1                    J0                  
  S3                         1.53    400.00     30.00    0.0500 1                    J4                  
  S4                         6.18    400.00     20.00    0.0500 1                    J8                  
  S5                         9.28    400.00     20.00    0.0500 1                    J7                  
  S6                         6.98    400.00     60.00    0.0500 1                    J5                  
  S7                         3.28    400.00     40.00    0.0500 1                    J25                 
  S8                        10.68    400.00     70.00    0.0500 1                    J11                 
  S9                        16.43    400.00     40.00    0.0500 1                    J14                 
  S10                        2.73    400.00     40.00    0.0500 1                    J9                  
  S11                        9.27    700.00     40.00    0.0500 1                    J10                 
  S12                       10.58    400.00     60.00    0.0500 1                    J17                 
  S13                       10.08    500.00     60.00    0.0500 1                    J24                 
  S14                       11.53    400.00     40.00    0.0500 1                    J15                 
  S15                        8.92    400.00     50.00    0.0500 1                    J23                 
  
  
  ************
  Node Summary
  ************
                                           Invert      Max.    Ponded    External
  Name                 Type                 Elev.     Depth      Area    Inflow  
  -------------------------------------------------------------------------------
  J0                   JUNCTION             30.99      4.00       0.0
  J1                   JUNCTION             28.99      4.00       0.0
  J2                   JUNCTION             25.99      4.00       0.0
  J3                   JUNCTION             30.99      4.00       0.0
  J4                   JUNCTION             33.99      4.00       0.0
  J5                   JUNCTION             28.99      4.00       0.0
  J6                   JUNCTION             23.79      4.00       0.0
  J7                   JUNCTION             28.39      4.00       0.0
  J8                   JUNCTION             29.99      4.00       0.0
  J9                   JUNCTION             28.69      4.00       0.0
  J10                  JUNCTION             25.99      4.00       0.0
  J11                  JUNCTION             25.69      4.00       0.0
  J12                  JUNCTION             22.79      4.00       0.0
  J13                  JUNCTION             25.29      4.00       0.0
  J14                  JUNCTION             24.59      4.00       0.0
  J15                  JUNCTION             24.19      4.00       0.0
  J16                  JUNCTION             23.39      4.00       0.0
  J17                  JUNCTION             22.09      4.00       0.0
  J18                  JUNCTION             16.00      4.00       0.0
  J20                  JUNCTION             17.70      4.00       0.0
  J21                  JUNCTION             19.00      4.00       0.0
  J23                  JUNCTION             22.29      4.00       0.0
  J24                  JUNCTION             20.89      4.00       0.0
  J25                  JUNCTION             30.19      4.00       0.0
  J19                  OUTFALL              15.50      3.60       0.0
  
  
  ************
  Link Summary
  ************
  Name             From Node        To Node          Type            Length    %Slope Roughness
  ---------------------------------------------------------------------------------------------
  C0               J0               J2               CONDUIT          214.0    2.3371    0.0110
  C1               J1               J2               CONDUIT          152.0    1.9741    0.0110
  C2               J3               J2               CONDUIT          306.0    1.6342    0.0110
  C3               J4               J3               CONDUIT          128.0    2.3444    0.0110
  C4               J2               J6               CONDUIT          293.0    0.7509    0.0110
  C5               J5               J6               CONDUIT          246.0    2.1143    0.0110
  C6               J25              J11              CONDUIT          289.0    1.5573    0.0110
  C7               J6               J12              CONDUIT          335.0    0.2985    0.0110
  C8               J7               J6               CONDUIT          187.0    2.4606    0.0110
  C9               J8               J9               CONDUIT          119.0    1.0925    0.0110
  C10              J9               J16              CONDUIT          325.0    1.6310    0.0110
  C11              J10              J11              CONDUIT          227.0    0.1322    0.0110
  C12              J12              J18              CONDUIT          401.0    1.6935    0.0110
  C13              J17              J18              CONDUIT          267.0    2.2815    0.0110
  C14              J11              J13              CONDUIT          113.0    0.3540    0.0110
  C16              J13              J17              CONDUIT          409.0    0.7824    0.0110
  C17              J24              J20              CONDUIT          329.0    0.9697    0.0110
  C18              J20              J18              CONDUIT          215.0    0.7907    0.0110
  C19              J16              J21              CONDUIT          437.0    1.0046    0.0110
  C20              J21              J20              CONDUIT          295.0    0.4407    0.0110
  C21              J23              J21              CONDUIT          204.0    1.6130    0.0110
  C23              J18              J19              CONDUIT          161.0    0.3106    0.0110
  C24              J15              J16              CONDUIT          197.0    0.4061    0.0110
  C22              J14              J12              CONDUIT          280.0    0.6429    0.0110
  
  
  *********************
  Cross Section Summary
  *********************
                                        Full     Full     Hyd.     Max.   No. of     Full
  Conduit          Shape               Depth     Area     Rad.    Width  Barrels     Flow
  ---------------------------------------------------------------------------------------
  C0               CIRCULAR             0.70     0.38     0.17     0.70        1     1.67
  C1               CIRCULAR             0.60     0.28     0.15     0.60        1     1.02
  C2               CIRCULAR             0.80     0.50     0.20     0.80        1     2.00
  C3               CIRCULAR             0.60     0.28     0.15     0.60        1     1.11
  C4               CIRCULAR             1.20     1.13     0.30     1.20        1     3.99
  C5               CIRCULAR             0.70     0.38     0.17     0.70        1     1.59
  C6               CIRCULAR             0.80     0.50     0.20     0.80        1     1.95
  C7               CIRCULAR             2.40     4.52     0.60     2.40        1    15.99
  C8               CIRCULAR             0.70     0.38     0.17     0.70        1     1.72
  C9               CIRCULAR             0.70     0.38     0.17     0.70        1     1.14
  C10              CIRCULAR             1.00     0.79     0.25     1.00        1     3.62
  C11              CIRCULAR             1.50     1.77     0.38     1.50        1     3.04
  C12              CIRCULAR             3.00     7.07     0.75     3.00        1    69.04
  C13              CIRCULAR             1.50     1.77     0.38     1.50        1    12.62
  C14              CIRCULAR             1.50     1.77     0.38     1.50        1     4.97
  C16              CIRCULAR             1.35     1.43     0.34     1.35        1     5.58
  C17              CIRCULAR             0.80     0.50     0.20     0.80        1     1.54
  C18              CIRCULAR             3.00     7.07     0.75     3.00        1    47.18
  C19              CIRCULAR             3.00     7.07     0.75     3.00        1    53.18
  C20              CIRCULAR             3.00     7.07     0.75     3.00        1    35.22
  C21              CIRCULAR             1.00     0.79     0.25     1.00        1     3.60
  C23              CIRCULAR             3.60    10.18     0.90     3.60        1    48.08
  C24              CIRCULAR             1.10     0.95     0.28     1.10        1     2.33
  C22              CIRCULAR             1.40     1.54     0.35     1.40        1     5.57
  
  
  
  *********************************************************
  NOTE: The summary statistics displayed in this report are
  based on results found at every computational time step,  
  not just on results from each reporting time step.
  *********************************************************
  
  ****************
  Analysis Options
  ****************
  Flow Units ............... CMS
  Process Models:
    Rainfall/Runoff ........ YES
    RDII ................... NO
    Snowmelt ............... NO
    Groundwater ............ NO
    Flow Routing ........... YES
    Ponding Allowed ........ NO
    Water Quality .......... NO
  Infiltration Method ...... HORTON
  Flow Routing Method ...... DYNWAVE
  Starting Date ............ 06/26/2005 03:45:00
  Ending Date .............. 06/26/2005 16:00:00
  Antecedent Dry Days ...... 0.0
  Report Time Step ......... 00:05:00
  Wet Time Step ............ 00:05:00
  Dry Time Step ............ 01:00:00
  Routing Time Step ........ 30.00 sec
  Variable Time Step ....... YES
  Maximum Trials ........... 8
  Number of Threads ........ 1
  Head Tolerance ........... 0.005000 m
  
  
  **************************        Volume         Depth
  Runoff Quantity Continuity     hectare-m            mm
  **************************     ---------       -------
  Total Precipitation ......         9.122        78.000
  Evaporation Loss .........         0.000         0.000
  Infiltration Loss ........         4.850        41.472
  Surface Runoff ...........         4.188        35.810
  Final Storage ............         0.093         0.792
  Continuity Error (%) .....        -0.095
  
  
  **************************        Volume        Volume
  Flow Routing Continuity        hectare-m      10^6 ltr
  **************************     ---------     ---------
  Dry Weather Inflow .......         0.000         0.000
  Wet Weather Inflow .......         4.187        41.866
  Groundwater Inflow .......         0.000         0.000
  RDII Inflow ..............         0.000         0.000
  External Inflow ..........         0.000         0.000
  External Outflow .........         4.190        41.896
  Flooding Loss ............         0.000         0.000
  Evaporation Loss .........         0.000         0.000
  Exfiltration Loss ........         0.000         0.000
  Initial Stored Volume ....         0.021         0.207
  Final Stored Volume ......         0.006         0.059
  Continuity Error (%) .....         0.280
  
  
  ***************************
  Time-Step Critical Elements
  ***************************
  Link C14 (34.93%)
  
  
  ********************************
  Highest Flow Instability Indexes
  ********************************
  Link C22 (2)
  Link C17 (2)
  Link C0 (2)
  Link C21 (2)
  Link C24 (2)
  
  
  *************************
  Routing Time Step Summary
  *************************
  Minimum Time Step           :    11.19 sec
  Average Time Step           :    28.11 sec
  Maximum Time Step           :    30.00 sec
  Percent in Steady State     :     0.00
  Average Iterations per Step :     2.00
  Percent Not Converging      :     0.00
  
  
  ***************************
  Subcatchment Runoff Summary
  ***************************
  
  --------------------------------------------------------------------------------------------------------
                            Total      Total      Total      Total      Total       Total     Peak  Runoff
                           Precip      Runon       Evap      Infil     Runoff      Runoff   Runoff   Coeff
  Subcatchment                 mm         mm         mm         mm         mm    10^6 ltr      CMS
  --------------------------------------------------------------------------------------------------------
  S1                        78.00       0.00       0.00      15.60      61.59        1.36     0.19   0.790
  S2                        78.00       0.00       0.00      39.00      38.33        2.78     0.35   0.491
  S3                        78.00       0.00       0.00      54.60      23.22        0.36     0.06   0.298
  S4                        78.00       0.00       0.00      62.40      15.42        0.95     0.14   0.198
  S5                        78.00       0.00       0.00      62.40      15.39        1.43     0.20   0.197
  S6                        78.00       0.00       0.00      31.20      45.94        3.21     0.39   0.589
  S7                        78.00       0.00       0.00      46.80      30.84        1.01     0.15   0.395
  S8                        78.00       0.00       0.00      23.40      53.18        5.68     0.60   0.682
  S9                        78.00       0.00       0.00      46.80      30.46        5.00     0.54   0.390
  S10                       78.00       0.00       0.00      46.80      30.86        0.84     0.13   0.396
  S11                       78.00       0.00       0.00      46.80      30.77        2.85     0.39   0.394
  S12                       78.00       0.00       0.00      31.20      45.71        4.84     0.53   0.586
  S13                       78.00       0.00       0.00      31.20      45.87        4.62     0.54   0.588
  S14                       78.00       0.00       0.00      46.80      30.60        3.53     0.42   0.392
  S15                       78.00       0.00       0.00      39.00      38.26        3.41     0.40   0.490
  
  
  ******************
  Node Depth Summary
  ******************
  
  ---------------------------------------------------------------------------------
                                 Average  Maximum  Maximum  Time of Max    Reported
                                   Depth    Depth      HGL   Occurrence   Max Depth
  Node                 Type       Meters   Meters   Meters  days hr:min      Meters
  ---------------------------------------------------------------------------------
  J0                   JUNCTION     0.08     0.22    31.21     0  07:35        0.21
  J1                   JUNCTION     0.06     0.18    29.17     0  07:35        0.17
  J2                   JUNCTION     0.11     0.31    26.30     0  07:37        0.30
  J3                   JUNCTION     0.03     0.09    31.08     0  04:11        0.09
  J4                   JUNCTION     0.03     0.09    34.08     0  07:35        0.09
  J5                   JUNCTION     0.09     0.23    29.22     0  07:35        0.23
  J6                   JUNCTION     0.17     0.44    24.23     0  07:38        0.44
  J7                   JUNCTION     0.06     0.16    28.55     0  07:35        0.16
  J8                   JUNCTION     0.05     0.17    30.16     0  07:35        0.16
  J9                   JUNCTION     0.06     0.18    28.87     0  07:36        0.18
  J10                  JUNCTION     0.13     0.36    26.35     0  07:36        0.36
  J11                  JUNCTION     0.19     0.48    26.17     0  07:37        0.48
  J12                  JUNCTION     0.13     0.32    23.11     0  07:40        0.32
  J13                  JUNCTION     0.16     0.42    25.71     0  07:38        0.41
  J14                  JUNCTION     0.12     0.29    24.88     0  07:45        0.29
  J15                  JUNCTION     0.13     0.32    24.51     0  07:35        0.32
  J16                  JUNCTION     0.09     0.23    23.62     0  07:37        0.23
  J17                  JUNCTION     0.15     0.36    22.45     0  07:39        0.36
  J18                  JUNCTION     0.31     0.77    16.77     0  07:41        0.77
  J20                  JUNCTION     0.15     0.37    18.07     0  07:40        0.37
  J21                  JUNCTION     0.14     0.35    19.35     0  07:39        0.35
  J23                  JUNCTION     0.09     0.23    22.52     0  07:35        0.22
  J24                  JUNCTION     0.13     0.33    21.22     0  07:36        0.32
  J25                  JUNCTION     0.05     0.15    30.34     0  07:35        0.15
  J19                  OUTFALL      0.30     0.77    16.27     0  07:42        0.77
  
  
  *******************
  Node Inflow Summary
  *******************
  
  -------------------------------------------------------------------------------------------------
                                  Maximum  Maximum                  Lateral       Total        Flow
                                  Lateral    Total  Time of Max      Inflow      Inflow     Balance
                                   Inflow   Inflow   Occurrence      Volume      Volume       Error
  Node                 Type           CMS      CMS  days hr:min    10^6 ltr    10^6 ltr     Percent
  -------------------------------------------------------------------------------------------------
  J0                   JUNCTION     0.346    0.346     0  07:35        2.78        2.78      -0.287
  J1                   JUNCTION     0.192    0.192     0  07:35        1.36        1.36      -0.049
  J2                   JUNCTION     0.000    0.590     0  07:35           0         4.5      -0.291
  J3                   JUNCTION     0.000    0.057     0  07:35           0       0.356      -0.169
  J4                   JUNCTION     0.057    0.057     0  07:35       0.355       0.355      -0.216
  J5                   JUNCTION     0.386    0.386     0  07:35        3.21        3.21      -0.005
  J6                   JUNCTION     0.000    1.147     0  07:36           0        9.15      -0.206
  J7                   JUNCTION     0.200    0.200     0  07:35        1.43        1.43      -0.073
  J8                   JUNCTION     0.141    0.141     0  07:35       0.953       0.952      -0.035
  J9                   JUNCTION     0.127    0.266     0  07:35       0.843         1.8      -0.129
  J10                  JUNCTION     0.392    0.392     0  07:35        2.85        2.85      -0.103
  J11                  JUNCTION     0.600    1.120     0  07:36        5.68        9.55       0.101
  J12                  JUNCTION     0.000    1.670     0  07:39           0        14.2      -0.232
  J13                  JUNCTION     0.000    1.109     0  07:37           0        9.54       0.011
  J14                  JUNCTION     0.540    0.540     0  07:45           5           5       0.023
  J15                  JUNCTION     0.415    0.415     0  07:35        3.53        3.53       0.005
  J16                  JUNCTION     0.000    0.677     0  07:36           0        5.33      -0.004
  J17                  JUNCTION     0.525    1.627     0  07:38        4.84        14.4       0.016
  J18                  JUNCTION     0.000    4.840     0  07:40           0        41.9       0.074
  J20                  JUNCTION     0.000    1.562     0  07:39           0        13.4       0.015
  J21                  JUNCTION     0.000    1.059     0  07:37           0        8.74       0.098
  J23                  JUNCTION     0.405    0.405     0  07:35        3.41        3.41      -0.027
  J24                  JUNCTION     0.538    0.538     0  07:35        4.62        4.62      -0.022
  J25                  JUNCTION     0.149    0.149     0  07:35        1.01        1.01      -0.199
  J19                  OUTFALL      0.000    4.842     0  07:42           0        41.9       0.000
  
  
  **********************
  Node Surcharge Summary
  **********************
  
  No nodes were surcharged.
  
  
  *********************
  Node Flooding Summary
  *********************
  
  No nodes were flooded.
  
  
  ***********************
  Outfall Loading Summary
  ***********************
  
  -----------------------------------------------------------
                         Flow       Avg       Max       Total
                         Freq      Flow      Flow      Volume
  Outfall Node           Pcnt       CMS       CMS    10^6 ltr
  -----------------------------------------------------------
  J19                  100.00     1.089     4.842      41.896
  -----------------------------------------------------------
  System               100.00     1.089     4.842      41.896
  
  
  ********************
  Link Flow Summary
  ********************
  
  -----------------------------------------------------------------------------
                                 Maximum  Time of Max   Maximum    Max/    Max/
                                  |Flow|   Occurrence   |Veloc|    Full    Full
  Link                 Type          CMS  days hr:min     m/sec    Flow   Depth
  -----------------------------------------------------------------------------
  C0                   CONDUIT     0.345     0  07:35      4.43    0.21    0.37
  C1                   CONDUIT     0.191     0  07:35      1.85    0.19    0.40
  C2                   CONDUIT     0.055     0  04:11      0.69    0.03    0.25
  C3                   CONDUIT     0.057     0  07:35      2.08    0.05    0.15
  C4                   CONDUIT     0.574     0  07:37      1.90    0.14    0.31
  C5                   CONDUIT     0.385     0  07:35      2.12    0.24    0.48
  C6                   CONDUIT     0.146     0  07:35      0.89    0.08    0.39
  C7                   CONDUIT     1.137     0  07:39      2.45    0.07    0.16
  C8                   CONDUIT     0.199     0  07:35      1.37    0.12    0.43
  C9                   CONDUIT     0.140     0  07:35      1.88    0.12    0.25
  C10                  CONDUIT     0.262     0  07:36      2.36    0.07    0.21
  C11                  CONDUIT     0.384     0  07:36      0.97    0.13    0.28
  C12                  CONDUIT     1.662     0  07:40      2.59    0.02    0.18
  C13                  CONDUIT     1.625     0  07:39      2.67    0.13    0.38
  C14                  CONDUIT     1.109     0  07:37      2.50    0.22    0.30
  C16                  CONDUIT     1.108     0  07:39      3.24    0.20    0.29
  C17                  CONDUIT     0.534     0  07:36      2.60    0.35    0.43
  C18                  CONDUIT     1.557     0  07:40      1.65    0.03    0.19
  C19                  CONDUIT     0.662     0  07:38      1.86    0.01    0.10
  C20                  CONDUIT     1.040     0  07:40      2.13    0.03    0.12
  C21                  CONDUIT     0.404     0  07:35      2.20    0.11    0.29
  C23                  CONDUIT     4.842     0  07:42      3.66    0.10    0.21
  C24                  CONDUIT     0.415     0  07:36      2.20    0.18    0.25
  C22                  CONDUIT     0.539     0  07:45      2.20    0.10    0.22
  
  
  ***************************
  Flow Classification Summary
  ***************************
  
  -------------------------------------------------------------------------------------
                      Adjusted    ---------- Fraction of Time in Flow Class ---------- 
                       /Actual         Up    Down  Sub   Sup   Up    Down  Norm  Inlet 
  Conduit               Length    Dry  Dry   Dry   Crit  Crit  Crit  Crit  Ltd   Ctrl  
  -------------------------------------------------------------------------------------
  C0                      1.00   0.00  0.00  0.00  0.02  0.98  0.00  0.00  1.00  0.00
  C1                      1.00   0.00  0.01  0.00  0.51  0.48  0.00  0.00  0.99  0.00
  C2                      1.00   0.00  0.01  0.00  0.99  0.00  0.00  0.00  0.99  0.00
  C3                      1.00   0.01  0.00  0.00  0.00  0.99  0.00  0.00  0.66  0.00
  C4                      1.00   0.00  0.00  0.00  0.58  0.42  0.00  0.00  1.00  0.00
  C5                      1.00   0.00  0.01  0.00  0.03  0.96  0.00  0.00  0.99  0.00
  C6                      1.00   0.01  0.00  0.00  0.98  0.01  0.00  0.00  0.99  0.00
  C7                      1.00   0.00  0.00  0.00  0.19  0.81  0.00  0.00  0.00  0.00
  C8                      1.00   0.00  0.01  0.00  0.95  0.04  0.00  0.00  0.99  0.00
  C9                      1.00   0.01  0.00  0.00  0.01  0.98  0.00  0.00  0.96  0.00
  C10                     1.00   0.01  0.00  0.00  0.40  0.60  0.00  0.00  0.95  0.00
  C11                     1.00   0.01  0.00  0.00  0.99  0.00  0.00  0.00  0.96  0.00
  C12                     1.00   0.00  0.00  0.00  0.93  0.07  0.00  0.00  1.00  0.00
  C13                     1.00   0.00  0.01  0.00  0.13  0.86  0.00  0.00  0.99  0.00
  C14                     1.00   0.01  0.00  0.00  0.01  0.98  0.00  0.00  0.18  0.00
  C16                     1.00   0.01  0.00  0.00  0.02  0.97  0.00  0.00  0.02  0.00
  C17                     1.00   0.01  0.00  0.00  0.01  0.99  0.00  0.00  0.93  0.00
  C18                     1.00   0.00  0.01  0.00  0.99  0.00  0.00  0.00  0.99  0.00
  C19                     1.00   0.01  0.00  0.00  0.40  0.59  0.00  0.00  0.99  0.00
  C20                     1.00   0.01  0.00  0.00  0.19  0.80  0.00  0.00  0.88  0.00
  C21                     1.00   0.01  0.00  0.00  0.01  0.99  0.00  0.00  0.97  0.00
  C23                     1.00   0.00  0.00  0.00  0.00  1.00  0.00  0.00  0.48  0.00
  C24                     1.00   0.01  0.00  0.00  0.01  0.98  0.00  0.00  0.00  0.00
  C22                     1.00   0.00  0.01  0.00  0.02  0.97  0.00  0.00  0.50  0.00
  
  
  *************************
  Conduit Surcharge Summary
  *************************
  
  No conduits were surcharged.
  
  
  ********************
  Subcatchment Results
  ********************
  
  <<< Subcatchment S1 >>>
  ---------------------------------------------------
  Date        Time        Precip.    Losses    Runoff
                            mm/hr     mm/hr       CMS
  ---------------------------------------------------
   06/26/2005 03:50:00      2.400     0.480    0.0000
   06/26/2005 03:55:00     10.800     2.160    0.0000
   06/26/2005 04:00:00     14.400     2.880    0.0016
   06/26/2005 04:05:00      2.400     0.480    0.0077
   06/26/2005 04:10:00      3.600     0.720    0.0081
   06/26/2005 04:15:00     31.200     6.240    0.0096
   06/26/2005 04:20:00     24.000     4.800    0.0469
   06/26/2005 04:25:00     10.800     2.160    0.0713
   06/26/2005 04:30:00      1.200     0.240    0.0647
   06/26/2005 04:35:00      0.000     0.000    0.0450
   06/26/2005 04:40:00      0.000     0.000    0.0316
   06/26/2005 04:45:00      0.000     0.000    0.0232
   06/26/2005 04:50:00      0.000     0.000    0.0176
   06/26/2005 04:55:00      0.000     0.000    0.0138
   06/26/2005 05:00:00      0.000     0.000    0.0110
   06/26/2005 05:05:00      0.000     0.000    0.0089
   06/26/2005 05:10:00      0.000     0.000    0.0074
   06/26/2005 05:15:00      1.200     0.240    0.0062
   06/26/2005 05:20:00      0.000     0.000    0.0061
   06/26/2005 05:25:00      0.000     0.000    0.0052
   06/26/2005 05:30:00      0.000     0.000    0.0044
   06/26/2005 05:35:00      0.000     0.000    0.0038
   06/26/2005 05:40:00      1.200     0.240    0.0033
   06/26/2005 05:45:00      2.400     0.480    0.0037
   06/26/2005 05:50:00      0.000     0.000    0.0048
   06/26/2005 05:55:00      6.000     1.200    0.0041
   06/26/2005 06:00:00      0.000     0.000    0.0081
   06/26/2005 06:05:00      1.200     0.240    0.0067
   06/26/2005 06:10:00      0.000     0.000    0.0066
   06/26/2005 06:15:00      0.000     0.000    0.0056
   06/26/2005 06:20:00      0.000     0.000    0.0047
   06/26/2005 06:25:00      0.000     0.000    0.0041
   06/26/2005 06:30:00      1.200     0.240    0.0035
   06/26/2005 06:35:00      0.000     0.000    0.0038
   06/26/2005 06:40:00      0.000     0.000    0.0034
   06/26/2005 06:45:00      0.000     0.000    0.0029
   06/26/2005 06:50:00      0.000     0.000    0.0026
   06/26/2005 06:55:00      0.000     0.000    0.0023
   06/26/2005 07:00:00      4.800     0.960    0.0021
   06/26/2005 07:05:00      1.200     0.240    0.0047
   06/26/2005 07:10:00      1.200     0.240    0.0049
   06/26/2005 07:15:00      3.600     0.720    0.0051
   06/26/2005 07:20:00      2.400     0.480    0.0070
   06/26/2005 07:25:00      6.000     1.200    0.0078
   06/26/2005 07:30:00      7.200     1.440    0.0119
   06/26/2005 07:35:00     12.000     2.400    0.0169
   06/26/2005 07:40:00     39.600     7.920    0.0273
   06/26/2005 07:45:00     40.800     8.160    0.0832
   06/26/2005 07:50:00     45.600     9.120    0.1320
   06/26/2005 07:55:00     34.800     6.960    0.1745
   06/26/2005 08:00:00     12.000     2.400    0.1728
   06/26/2005 08:05:00     21.600     4.320    0.1212
   06/26/2005 08:10:00     20.400     4.080    0.1148
   06/26/2005 08:15:00     14.400     2.880    0.1086
   06/26/2005 08:20:00     42.000     8.400    0.0932
   06/26/2005 08:25:00     27.600     5.520    0.1416
   06/26/2005 08:30:00     16.800     3.360    0.1388
   06/26/2005 08:35:00      7.200     1.440    0.1143
   06/26/2005 08:40:00      2.400     0.480    0.0826
   06/26/2005 08:45:00      2.400     0.480    0.0570
   06/26/2005 08:50:00      1.200     0.240    0.0423
   06/26/2005 08:55:00      1.200     0.240    0.0316
   06/26/2005 09:00:00      6.000     1.200    0.0247
   06/26/2005 09:05:00      7.200     1.440    0.0259
   06/26/2005 09:10:00      6.000     1.200    0.0284
   06/26/2005 09:15:00      2.400     0.480    0.0287
   06/26/2005 09:20:00      4.800     0.960    0.0243
   06/26/2005 09:25:00      4.800     0.960    0.0241
   06/26/2005 09:30:00      7.200     1.440    0.0239
   06/26/2005 09:35:00     15.600     3.120    0.0269
   06/26/2005 09:40:00     15.600     3.120    0.0412
   06/26/2005 09:45:00     12.000     2.400    0.0526
   06/26/2005 09:50:00     12.000     2.400    0.0547
   06/26/2005 09:55:00      4.800     0.960    0.0561
   06/26/2005 10:00:00     12.000     2.400    0.0455
   06/26/2005 10:05:00      8.400     1.680    0.0498
   06/26/2005 10:10:00      1.200     0.240    0.0470
   06/26/2005 10:15:00      2.400     0.480    0.0345
   06/26/2005 10:20:00      4.800     0.960    0.0282
   06/26/2005 10:25:00      3.600     0.720    0.0269
   06/26/2005 10:30:00      4.800     0.960    0.0245
   06/26/2005 10:35:00     15.600     3.120    0.0243
   06/26/2005 10:40:00     12.000     2.400    0.0390
   06/26/2005 10:45:00     18.000     3.600    0.0451
   06/26/2005 10:50:00     42.000     8.400    0.0595
   06/26/2005 10:55:00     16.800     3.360    0.1169
   06/26/2005 11:00:00     14.400     2.880    0.1026
   06/26/2005 11:05:00     40.800     8.160    0.0898
   06/26/2005 11:10:00     37.200     7.440    0.1366
   06/26/2005 11:15:00     46.800     9.360    0.1576
   06/26/2005 11:20:00     27.600     5.520    0.1923
   06/26/2005 11:25:00     31.200     6.240    0.1650
   06/26/2005 11:30:00     13.200     2.640    0.1595
   06/26/2005 11:35:00      1.200     0.240    0.1173
   06/26/2005 11:40:00      1.200     0.240    0.0731
   06/26/2005 11:45:00      0.000     0.000    0.0498
   06/26/2005 11:50:00      0.000     0.000    0.0345
   06/26/2005 11:55:00      0.000     0.000    0.0251
   06/26/2005 12:00:00      0.000     0.000    0.0189
   06/26/2005 12:05:00      0.000     0.000    0.0146
   06/26/2005 12:10:00      0.000     0.000    0.0116
   06/26/2005 12:15:00      0.000     0.000    0.0094
   06/26/2005 12:20:00      0.000     0.000    0.0077
   06/26/2005 12:25:00      0.000     0.000    0.0065
   06/26/2005 12:30:00      0.000     0.000    0.0055
   06/26/2005 12:35:00      0.000     0.000    0.0047
   06/26/2005 12:40:00      0.000     0.000    0.0040
   06/26/2005 12:45:00      0.000     0.000    0.0035
   06/26/2005 12:50:00      0.000     0.000    0.0031
   06/26/2005 12:55:00      0.000     0.000    0.0027
   06/26/2005 13:00:00      0.000     0.000    0.0024
   06/26/2005 13:05:00      0.000     0.000    0.0021
   06/26/2005 13:10:00      0.000     0.000    0.0019
   06/26/2005 13:15:00      0.000     0.000    0.0017
   06/26/2005 13:20:00      0.000     0.000    0.0016
   06/26/2005 13:25:00      0.000     0.000    0.0014
   06/26/2005 13:30:00      0.000     0.000    0.0013
   06/26/2005 13:35:00      0.000     0.000    0.0012
   06/26/2005 13:40:00      0.000     0.000    0.0011
   06/26/2005 13:45:00      0.000     0.000    0.0010
   06/26/2005 13:50:00      0.000     0.000    0.0009
   06/26/2005 13:55:00      0.000     0.000    0.0008
   06/26/2005 14:00:00      0.000     0.000    0.0008
   06/26/2005 14:05:00      0.000     0.000    0.0007
   06/26/2005 14:10:00      0.000     0.000    0.0007
   06/26/2005 14:15:00      0.000     0.000    0.0006
   06/26/2005 14:20:00      0.000     0.000    0.0006
   06/26/2005 14:25:00      0.000     0.000    0.0006
   06/26/2005 14:30:00      0.000     0.000    0.0005
   06/26/2005 14:35:00      0.000     0.000    0.0005
   06/26/2005 14:40:00      0.000     0.000    0.0005
   06/26/2005 14:45:00      0.000     0.000    0.0004
   06/26/2005 14:50:00      0.000     0.000    0.0004
   06/26/2005 14:55:00      0.000     0.000    0.0004
   06/26/2005 15:00:00      0.000     0.000    0.0004
   06/26/2005 15:05:00      0.000     0.000    0.0003
   06/26/2005 15:10:00      0.000     0.000    0.0003
   06/26/2005 15:15:00      0.000     0.000    0.0003
   06/26/2005 15:20:00      0.000     0.000    0.0003
   06/26/2005 15:25:00      0.000     0.000    0.0003
   06/26/2005 15:30:00      0.000     0.000    0.0003
   06/26/2005 15:35:00      0.000     0.000    0.0003
   06/26/2005 15:40:00      0.000     0.000    0.0002
   06/26/2005 15:45:00      0.000     0.000    0.0002
   06/26/2005 15:50:00      0.000     0.000    0.0002
   06/26/2005 15:55:00      0.000     0.000    0.0002
  
  
  <<< Subcatchment S2 >>>
  ---------------------------------------------------
  Date        Time        Precip.    Losses    Runoff
                            mm/hr     mm/hr       CMS
  ---------------------------------------------------
   06/26/2005 03:50:00      2.400     1.200    0.0000
   06/26/2005 03:55:00     10.800     5.400    0.0000
   06/26/2005 04:00:00     14.400     7.200    0.0017
   06/26/2005 04:05:00      2.400     1.200    0.0083
   06/26/2005 04:10:00      3.600     1.800    0.0095
   06/26/2005 04:15:00     31.200    15.600    0.0119
   06/26/2005 04:20:00     24.000    12.000    0.0555
   06/26/2005 04:25:00     10.800     5.400    0.0929
   06/26/2005 04:30:00      1.200     0.600    0.0963
   06/26/2005 04:35:00      0.000     0.000    0.0783
   06/26/2005 04:40:00      0.000     0.000    0.0628
   06/26/2005 04:45:00      0.000     0.000    0.0513
   06/26/2005 04:50:00      0.000     0.000    0.0425
   06/26/2005 04:55:00      0.000     0.000    0.0357
   06/26/2005 05:00:00      0.000     0.000    0.0303
   06/26/2005 05:05:00      0.000     0.000    0.0260
   06/26/2005 05:10:00      0.000     0.000    0.0225
   06/26/2005 05:15:00      1.200     0.600    0.0196
   06/26/2005 05:20:00      0.000     0.000    0.0187
   06/26/2005 05:25:00      0.000     0.000    0.0165
   06/26/2005 05:30:00      0.000     0.000    0.0146
   06/26/2005 05:35:00      0.000     0.000    0.0130
   06/26/2005 05:40:00      1.200     0.600    0.0117
   06/26/2005 05:45:00      2.400     1.200    0.0117
   06/26/2005 05:50:00      0.000     0.000    0.0130
   06/26/2005 05:55:00      6.000     3.000    0.0117
   06/26/2005 06:00:00      0.000     0.000    0.0170
   06/26/2005 06:05:00      1.200     0.600    0.0151
   06/26/2005 06:10:00      0.000     0.000    0.0147
   06/26/2005 06:15:00      0.000     0.000    0.0131
   06/26/2005 06:20:00      0.000     0.000    0.0118
   06/26/2005 06:25:00      0.000     0.000    0.0106
   06/26/2005 06:30:00      1.200     0.600    0.0096
   06/26/2005 06:35:00      0.000     0.000    0.0098
   06/26/2005 06:40:00      0.000     0.000    0.0089
   06/26/2005 06:45:00      0.000     0.000    0.0081
   06/26/2005 06:50:00      0.000     0.000    0.0074
   06/26/2005 06:55:00      0.000     0.000    0.0068
   06/26/2005 07:00:00      4.800     2.400    0.0062
   06/26/2005 07:05:00      1.200     0.600    0.0099
   06/26/2005 07:10:00      1.200     0.600    0.0101
   06/26/2005 07:15:00      3.600     1.800    0.0103
   06/26/2005 07:20:00      2.400     1.200    0.0130
   06/26/2005 07:25:00      6.000     3.000    0.0142
   06/26/2005 07:30:00      7.200     3.600    0.0196
   06/26/2005 07:35:00     12.000     6.000    0.0266
   06/26/2005 07:40:00     39.600    19.800    0.0409
   06/26/2005 07:45:00     40.800    20.400    0.1133
   06/26/2005 07:50:00     45.600    22.800    0.1905
   06/26/2005 07:55:00     34.800    17.400    0.2711
   06/26/2005 08:00:00     12.000     6.000    0.2966
   06/26/2005 08:05:00     21.600    10.800    0.2415
   06/26/2005 08:10:00     20.400    10.200    0.2343
   06/26/2005 08:15:00     14.400     7.200    0.2257
   06/26/2005 08:20:00     42.000    21.000    0.2022
   06/26/2005 08:25:00     27.600    13.800    0.2689
   06/26/2005 08:30:00     16.800     8.400    0.2718
   06/26/2005 08:35:00      7.200     3.600    0.2401
   06/26/2005 08:40:00      2.400     1.200    0.1913
   06/26/2005 08:45:00      2.400     1.200    0.1465
   06/26/2005 08:50:00      1.200     0.600    0.1163
   06/26/2005 08:55:00      1.200     0.600    0.0926
   06/26/2005 09:00:00      6.000     3.000    0.0757
   06/26/2005 09:05:00      7.200     3.600    0.0726
   06/26/2005 09:10:00      6.000     3.000    0.0726
   06/26/2005 09:15:00      2.400     1.200    0.0702
   06/26/2005 09:20:00      4.800     2.400    0.0613
   06/26/2005 09:25:00      4.800     2.400    0.0589
   06/26/2005 09:30:00      7.200     3.600    0.0569
   06/26/2005 09:35:00     15.600     7.800    0.0598
   06/26/2005 09:40:00     15.600     7.800    0.0790
   06/26/2005 09:45:00     12.000     6.000    0.0958
   06/26/2005 09:50:00     12.000     6.000    0.1014
   06/26/2005 09:55:00      4.800     2.400    0.1058
   06/26/2005 10:00:00     12.000     6.000    0.0930
   06/26/2005 10:05:00      8.400     4.200    0.0992
   06/26/2005 10:10:00      1.200     0.600    0.0959
   06/26/2005 10:15:00      2.400     1.200    0.0781
   06/26/2005 10:20:00      4.800     2.400    0.0673
   06/26/2005 10:25:00      3.600     1.800    0.0636
   06/26/2005 10:30:00      4.800     2.400    0.0585
   06/26/2005 10:35:00     15.600     7.800    0.0566
   06/26/2005 10:40:00     12.000     6.000    0.0761
   06/26/2005 10:45:00     18.000     9.000    0.0855
   06/26/2005 10:50:00     42.000    21.000    0.1067
   06/26/2005 10:55:00     16.800     8.400    0.1879
   06/26/2005 11:00:00     14.400     7.200    0.1827
   06/26/2005 11:05:00     40.800    20.400    0.1724
   06/26/2005 11:10:00     37.200    18.600    0.2413
   06/26/2005 11:15:00     46.800    23.400    0.2830
   06/26/2005 11:20:00     27.600    13.800    0.3455
   06/26/2005 11:25:00     31.200    15.600    0.3228
   06/26/2005 11:30:00     13.200     6.600    0.3200
   06/26/2005 11:35:00      1.200     0.600    0.2599
   06/26/2005 11:40:00      1.200     0.600    0.1870
   06/26/2005 11:45:00      0.000     0.000    0.1406
   06/26/2005 11:50:00      0.000     0.000    0.1067
   06/26/2005 11:55:00      0.000     0.000    0.0832
   06/26/2005 12:00:00      0.000     0.000    0.0664
   06/26/2005 12:05:00      0.000     0.000    0.0540
   06/26/2005 12:10:00      0.000     0.000    0.0446
   06/26/2005 12:15:00      0.000     0.000    0.0373
   06/26/2005 12:20:00      0.000     0.000    0.0316
   06/26/2005 12:25:00      0.000     0.000    0.0271
   06/26/2005 12:30:00      0.000     0.000    0.0234
   06/26/2005 12:35:00      0.000     0.000    0.0204
   06/26/2005 12:40:00      0.000     0.000    0.0179
   06/26/2005 12:45:00      0.000     0.000    0.0158
   06/26/2005 12:50:00      0.000     0.000    0.0140
   06/26/2005 12:55:00      0.000     0.000    0.0125
   06/26/2005 13:00:00      0.000     0.000    0.0112
   06/26/2005 13:05:00      0.000     0.000    0.0101
   06/26/2005 13:10:00      0.000     0.000    0.0092
   06/26/2005 13:15:00      0.000     0.000    0.0083
   06/26/2005 13:20:00      0.000     0.000    0.0076
   06/26/2005 13:25:00      0.000     0.000    0.0069
   06/26/2005 13:30:00      0.000     0.000    0.0064
   06/26/2005 13:35:00      0.000     0.000    0.0059
   06/26/2005 13:40:00      0.000     0.000    0.0054
   06/26/2005 13:45:00      0.000     0.000    0.0050
   06/26/2005 13:50:00      0.000     0.000    0.0046
   06/26/2005 13:55:00      0.000     0.000    0.0043
   06/26/2005 14:00:00      0.000     0.000    0.0040
   06/26/2005 14:05:00      0.000     0.000    0.0037
   06/26/2005 14:10:00      0.000     0.000    0.0035
   06/26/2005 14:15:00      0.000     0.000    0.0033
   06/26/2005 14:20:00      0.000     0.000    0.0031
   06/26/2005 14:25:00      0.000     0.000    0.0029
   06/26/2005 14:30:00      0.000     0.000    0.0027
   06/26/2005 14:35:00      0.000     0.000    0.0026
   06/26/2005 14:40:00      0.000     0.000    0.0024
   06/26/2005 14:45:00      0.000     0.000    0.0023
   06/26/2005 14:50:00      0.000     0.000    0.0022
   06/26/2005 14:55:00      0.000     0.000    0.0020
   06/26/2005 15:00:00      0.000     0.000    0.0019
   06/26/2005 15:05:00      0.000     0.000    0.0018
   06/26/2005 15:10:00      0.000     0.000    0.0018
   06/26/2005 15:15:00      0.000     0.000    0.0017
   06/26/2005 15:20:00      0.000     0.000    0.0016
   06/26/2005 15:25:00      0.000     0.000    0.0015
   06/26/2005 15:30:00      0.000     0.000    0.0014
   06/26/2005 15:35:00      0.000     0.000    0.0014
   06/26/2005 15:40:00      0.000     0.000    0.0013
   06/26/2005 15:45:00      0.000     0.000    0.0013
   06/26/2005 15:50:00      0.000     0.000    0.0012
   06/26/2005 15:55:00      0.000     0.000    0.0012
  
  
  <<< Subcatchment S3 >>>
  ---------------------------------------------------
  Date        Time        Precip.    Losses    Runoff
                            mm/hr     mm/hr       CMS
  ---------------------------------------------------
   06/26/2005 03:50:00      2.400     1.680    0.0000
   06/26/2005 03:55:00     10.800     7.560    0.0000
   06/26/2005 04:00:00     14.400    10.080    0.0013
   06/26/2005 04:05:00      2.400     1.680    0.0057
   06/26/2005 04:10:00      3.600     2.520    0.0043
   06/26/2005 04:15:00     31.200    21.840    0.0044
   06/26/2005 04:20:00     24.000    16.800    0.0258
   06/26/2005 04:25:00     10.800     7.560    0.0292
   06/26/2005 04:30:00      1.200     0.840    0.0189
   06/26/2005 04:35:00      0.000     0.000    0.0087
   06/26/2005 04:40:00      0.000     0.000    0.0045
   06/26/2005 04:45:00      0.000     0.000    0.0027
   06/26/2005 04:50:00      0.000     0.000    0.0017
   06/26/2005 04:55:00      0.000     0.000    0.0012
   06/26/2005 05:00:00      0.000     0.000    0.0009
   06/26/2005 05:05:00      0.000     0.000    0.0007
   06/26/2005 05:10:00      0.000     0.000    0.0005
   06/26/2005 05:15:00      1.200     0.840    0.0004
   06/26/2005 05:20:00      0.000     0.000    0.0006
   06/26/2005 05:25:00      0.000     0.000    0.0005
   06/26/2005 05:30:00      0.000     0.000    0.0004
   06/26/2005 05:35:00      0.000     0.000    0.0003
   06/26/2005 05:40:00      1.200     0.840    0.0003
   06/26/2005 05:45:00      2.400     1.680    0.0005
   06/26/2005 05:50:00      0.000     0.000    0.0012
   06/26/2005 05:55:00      6.000     4.200    0.0008
   06/26/2005 06:00:00      0.000     0.000    0.0031
   06/26/2005 06:05:00      1.200     0.840    0.0020
   06/26/2005 06:10:00      0.000     0.000    0.0018
   06/26/2005 06:15:00      0.000     0.000    0.0013
   06/26/2005 06:20:00      0.000     0.000    0.0009
   06/26/2005 06:25:00      0.000     0.000    0.0007
   06/26/2005 06:30:00      1.200     0.840    0.0005
   06/26/2005 06:35:00      0.000     0.000    0.0008
   06/26/2005 06:40:00      0.000     0.000    0.0006
   06/26/2005 06:45:00      0.000     0.000    0.0005
   06/26/2005 06:50:00      0.000     0.000    0.0004
   06/26/2005 06:55:00      0.000     0.000    0.0003
   06/26/2005 07:00:00      4.800     3.360    0.0002
   06/26/2005 07:05:00      1.200     0.840    0.0018
   06/26/2005 07:10:00      1.200     0.840    0.0017
   06/26/2005 07:15:00      3.600     2.520    0.0016
   06/26/2005 07:20:00      2.400     1.680    0.0027
   06/26/2005 07:25:00      6.000     4.200    0.0028
   06/26/2005 07:30:00      7.200     5.040    0.0049
   06/26/2005 07:35:00     12.000     8.400    0.0069
   06/26/2005 07:40:00     39.600    27.720    0.0115
   06/26/2005 07:45:00     40.800    28.560    0.0384
   06/26/2005 07:50:00     45.600    31.920    0.0489
   06/26/2005 07:55:00     34.800    24.360    0.0562
   06/26/2005 08:00:00     12.000     8.400    0.0470
   06/26/2005 08:05:00     21.600    15.120    0.0241
   06/26/2005 08:10:00     20.400    14.280    0.0265
   06/26/2005 08:15:00     14.400    10.080    0.0262
   06/26/2005 08:20:00     42.000    29.400    0.0209
   06/26/2005 08:25:00     27.600    19.320    0.0448
   06/26/2005 08:30:00     16.800    11.760    0.0376
   06/26/2005 08:35:00      7.200     5.040    0.0261
   06/26/2005 08:40:00      2.400     1.680    0.0152
   06/26/2005 08:45:00      2.400     1.680    0.0083
   06/26/2005 08:50:00      1.200     0.840    0.0057
   06/26/2005 08:55:00      1.200     0.840    0.0039
   06/26/2005 09:00:00      6.000     4.200    0.0029
   06/26/2005 09:05:00      7.200     5.040    0.0049
   06/26/2005 09:10:00      6.000     4.200    0.0070
   06/26/2005 09:15:00      2.400     1.680    0.0073
   06/26/2005 09:20:00      4.800     3.360    0.0053
   06/26/2005 09:25:00      4.800     3.360    0.0057
   06/26/2005 09:30:00      7.200     5.040    0.0059
   06/26/2005 09:35:00     15.600    10.920    0.0075
   06/26/2005 09:40:00     15.600    10.920    0.0146
   06/26/2005 09:45:00     12.000     8.400    0.0179
   06/26/2005 09:50:00     12.000     8.400    0.0163
   06/26/2005 09:55:00      4.800     3.360    0.0157
   06/26/2005 10:00:00     12.000     8.400    0.0101
   06/26/2005 10:05:00      8.400     5.880    0.0131
   06/26/2005 10:10:00      1.200     0.840    0.0117
   06/26/2005 10:15:00      2.400     1.680    0.0063
   06/26/2005 10:20:00      4.800     3.360    0.0048
   06/26/2005 10:25:00      3.600     2.520    0.0054
   06/26/2005 10:30:00      4.800     3.360    0.0050
   06/26/2005 10:35:00     15.600    10.920    0.0055
   06/26/2005 10:40:00     12.000     8.400    0.0134
   06/26/2005 10:45:00     18.000    12.600    0.0145
   06/26/2005 10:50:00     42.000    29.400    0.0199
   06/26/2005 10:55:00     16.800    11.760    0.0444
   06/26/2005 11:00:00     14.400    10.080    0.0277
   06/26/2005 11:05:00     40.800    28.560    0.0214
   06/26/2005 11:10:00     37.200    26.040    0.0437
   06/26/2005 11:15:00     46.800    32.760    0.0466
   06/26/2005 11:20:00     27.600    19.320    0.0570
   06/26/2005 11:25:00     31.200    21.840    0.0402
   06/26/2005 11:30:00     13.200     9.240    0.0399
   06/26/2005 11:35:00      1.200     0.840    0.0236
   06/26/2005 11:40:00      1.200     0.840    0.0101
   06/26/2005 11:45:00      0.000     0.000    0.0057
   06/26/2005 11:50:00      0.000     0.000    0.0032
   06/26/2005 11:55:00      0.000     0.000    0.0020
   06/26/2005 12:00:00      0.000     0.000    0.0014
   06/26/2005 12:05:00      0.000     0.000    0.0010
   06/26/2005 12:10:00      0.000     0.000    0.0007
   06/26/2005 12:15:00      0.000     0.000    0.0006
   06/26/2005 12:20:00      0.000     0.000    0.0004
   06/26/2005 12:25:00      0.000     0.000    0.0004
   06/26/2005 12:30:00      0.000     0.000    0.0003
   06/26/2005 12:35:00      0.000     0.000    0.0002
   06/26/2005 12:40:00      0.000     0.000    0.0002
   06/26/2005 12:45:00      0.000     0.000    0.0002
   06/26/2005 12:50:00      0.000     0.000    0.0001
   06/26/2005 12:55:00      0.000     0.000    0.0001
   06/26/2005 13:00:00      0.000     0.000    0.0001
   06/26/2005 13:05:00      0.000     0.000    0.0000
   06/26/2005 13:10:00      0.000     0.000    0.0000
   06/26/2005 13:15:00      0.000     0.000    0.0000
   06/26/2005 13:20:00      0.000     0.000    0.0000
   06/26/2005 13:25:00      0.000     0.000    0.0000
   06/26/2005 13:30:00      0.000     0.000    0.0000
   06/26/2005 13:35:00      0.000     0.000    0.0000
   06/26/2005 13:40:00      0.000     0.000    0.0000
   06/26/2005 13:45:00      0.000     0.000    0.0000
   06/26/2005 13:50:00      0.000     0.000    0.0000
   06/26/2005 13:55:00      0.000     0.000    0.0000
   06/26/2005 14:00:00      0.000     0.000    0.0000
   06/26/2005 14:05:00      0.000     0.000    0.0000
   06/26/2005 14:10:00      0.000     0.000    0.0000
   06/26/2005 14:15:00      0.000     0.000    0.0000
   06/26/2005 14:20:00      0.000     0.000    0.0000
   06/26/2005 14:25:00      0.000     0.000    0.0000
   06/26/2005 14:30:00      0.000     0.000    0.0000
   06/26/2005 14:35:00      0.000     0.000    0.0000
   06/26/2005 14:40:00      0.000     0.000    0.0000
   06/26/2005 14:45:00      0.000     0.000    0.0000
   06/26/2005 14:50:00      0.000     0.000    0.0000
   06/26/2005 14:55:00      0.000     0.000    0.0000
   06/26/2005 15:00:00      0.000     0.000    0.0000
   06/26/2005 15:05:00      0.000     0.000    0.0000
   06/26/2005 15:10:00      0.000     0.000    0.0000
   06/26/2005 15:15:00      0.000     0.000    0.0000
   06/26/2005 15:20:00      0.000     0.000    0.0000
   06/26/2005 15:25:00      0.000     0.000    0.0000
   06/26/2005 15:30:00      0.000     0.000    0.0000
   06/26/2005 15:35:00      0.000     0.000    0.0000
   06/26/2005 15:40:00      0.000     0.000    0.0000
   06/26/2005 15:45:00      0.000     0.000    0.0000
   06/26/2005 15:50:00      0.000     0.000    0.0000
   06/26/2005 15:55:00      0.000     0.000    0.0000
  
  
  <<< Subcatchment S4 >>>
  ---------------------------------------------------
  Date        Time        Precip.    Losses    Runoff
                            mm/hr     mm/hr       CMS
  ---------------------------------------------------
   06/26/2005 03:50:00      2.400     1.920    0.0000
   06/26/2005 03:55:00     10.800     8.640    0.0000
   06/26/2005 04:00:00     14.400    11.520    0.0016
   06/26/2005 04:05:00      2.400     1.920    0.0073
   06/26/2005 04:10:00      3.600     2.880    0.0072
   06/26/2005 04:15:00     31.200    24.960    0.0082
   06/26/2005 04:20:00     24.000    19.200    0.0416
   06/26/2005 04:25:00     10.800     8.640    0.0593
   06/26/2005 04:30:00      1.200     0.960    0.0495
   06/26/2005 04:35:00      0.000     0.000    0.0313
   06/26/2005 04:40:00      0.000     0.000    0.0204
   06/26/2005 04:45:00      0.000     0.000    0.0141
   06/26/2005 04:50:00      0.000     0.000    0.0102
   06/26/2005 04:55:00      0.000     0.000    0.0077
   06/26/2005 05:00:00      0.000     0.000    0.0060
   06/26/2005 05:05:00      0.000     0.000    0.0048
   06/26/2005 05:10:00      0.000     0.000    0.0038
   06/26/2005 05:15:00      1.200     0.960    0.0032
   06/26/2005 05:20:00      0.000     0.000    0.0033
   06/26/2005 05:25:00      0.000     0.000    0.0028
   06/26/2005 05:30:00      0.000     0.000    0.0023
   06/26/2005 05:35:00      0.000     0.000    0.0020
   06/26/2005 05:40:00      1.200     0.960    0.0017
   06/26/2005 05:45:00      2.400     1.920    0.0020
   06/26/2005 05:50:00      0.000     0.000    0.0030
   06/26/2005 05:55:00      6.000     4.800    0.0025
   06/26/2005 06:00:00      0.000     0.000    0.0059
   06/26/2005 06:05:00      1.200     0.960    0.0047
   06/26/2005 06:10:00      0.000     0.000    0.0046
   06/26/2005 06:15:00      0.000     0.000    0.0037
   06/26/2005 06:20:00      0.000     0.000    0.0031
   06/26/2005 06:25:00      0.000     0.000    0.0026
   06/26/2005 06:30:00      1.200     0.960    0.0022
   06/26/2005 06:35:00      0.000     0.000    0.0025
   06/26/2005 06:40:00      0.000     0.000    0.0021
   06/26/2005 06:45:00      0.000     0.000    0.0018
   06/26/2005 06:50:00      0.000     0.000    0.0016
   06/26/2005 06:55:00      0.000     0.000    0.0014
   06/26/2005 07:00:00      4.800     3.840    0.0012
   06/26/2005 07:05:00      1.200     0.960    0.0035
   06/26/2005 07:10:00      1.200     0.960    0.0036
   06/26/2005 07:15:00      3.600     2.880    0.0037
   06/26/2005 07:20:00      2.400     1.920    0.0054
   06/26/2005 07:25:00      6.000     4.800    0.0060
   06/26/2005 07:30:00      7.200     5.760    0.0094
   06/26/2005 07:35:00     12.000     9.600    0.0135
   06/26/2005 07:40:00     39.600    31.680    0.0222
   06/26/2005 07:45:00     40.800    32.640    0.0699
   06/26/2005 07:50:00     45.600    36.480    0.1057
   06/26/2005 07:55:00     34.800    27.840    0.1338
   06/26/2005 08:00:00     12.000     9.600    0.1258
   06/26/2005 08:05:00     21.600    17.280    0.0814
   06/26/2005 08:10:00     20.400    16.320    0.0778
   06/26/2005 08:15:00     14.400    11.520    0.0740
   06/26/2005 08:20:00     42.000    33.600    0.0624
   06/26/2005 08:25:00     27.600    22.080    0.1035
   06/26/2005 08:30:00     16.800    13.440    0.0989
   06/26/2005 08:35:00      7.200     5.760    0.0780
   06/26/2005 08:40:00      2.400     1.920    0.0533
   06/26/2005 08:45:00      2.400     1.920    0.0347
   06/26/2005 08:50:00      1.200     0.960    0.0250
   06/26/2005 08:55:00      1.200     0.960    0.0181
   06/26/2005 09:00:00      6.000     4.800    0.0139
   06/26/2005 09:05:00      7.200     5.760    0.0159
   06/26/2005 09:10:00      6.000     4.800    0.0186
   06/26/2005 09:15:00      2.400     1.920    0.0193
   06/26/2005 09:20:00      4.800     3.840    0.0158
   06/26/2005 09:25:00      4.800     3.840    0.0160
   06/26/2005 09:30:00      7.200     5.760    0.0162
   06/26/2005 09:35:00     15.600    12.480    0.0188
   06/26/2005 09:40:00     15.600    12.480    0.0309
   06/26/2005 09:45:00     12.000     9.600    0.0398
   06/26/2005 09:50:00     12.000     9.600    0.0403
   06/26/2005 09:55:00      4.800     3.840    0.0407
   06/26/2005 10:00:00     12.000     9.600    0.0313
   06/26/2005 10:05:00      8.400     6.720    0.0351
   06/26/2005 10:10:00      1.200     0.960    0.0327
   06/26/2005 10:15:00      2.400     1.920    0.0225
   06/26/2005 10:20:00      4.800     3.840    0.0179
   06/26/2005 10:25:00      3.600     2.880    0.0174
   06/26/2005 10:30:00      4.800     3.840    0.0159
   06/26/2005 10:35:00     15.600    12.480    0.0161
   06/26/2005 10:40:00     12.000     9.600    0.0287
   06/26/2005 10:45:00     18.000    14.400    0.0334
   06/26/2005 10:50:00     42.000    33.600    0.0448
   06/26/2005 10:55:00     16.800    13.440    0.0920
   06/26/2005 11:00:00     14.400    11.520    0.0749
   06/26/2005 11:05:00     40.800    32.640    0.0629
   06/26/2005 11:10:00     37.200    29.760    0.1015
   06/26/2005 11:15:00     46.800    37.440    0.1157
   06/26/2005 11:20:00     27.600    22.080    0.1410
   06/26/2005 11:25:00     31.200    24.960    0.1152
   06/26/2005 11:30:00     13.200    10.560    0.1108
   06/26/2005 11:35:00      1.200     0.960    0.0772
   06/26/2005 11:40:00      1.200     0.960    0.0442
   06/26/2005 11:45:00      0.000     0.000    0.0286
   06/26/2005 11:50:00      0.000     0.000    0.0189
   06/26/2005 11:55:00      0.000     0.000    0.0132
   06/26/2005 12:00:00      0.000     0.000    0.0097
   06/26/2005 12:05:00      0.000     0.000    0.0073
   06/26/2005 12:10:00      0.000     0.000    0.0057
   06/26/2005 12:15:00      0.000     0.000    0.0046
   06/26/2005 12:20:00      0.000     0.000    0.0037
   06/26/2005 12:25:00      0.000     0.000    0.0031
   06/26/2005 12:30:00      0.000     0.000    0.0026
   06/26/2005 12:35:00      0.000     0.000    0.0022
   06/26/2005 12:40:00      0.000     0.000    0.0019
   06/26/2005 12:45:00      0.000     0.000    0.0016
   06/26/2005 12:50:00      0.000     0.000    0.0014
   06/26/2005 12:55:00      0.000     0.000    0.0012
   06/26/2005 13:00:00      0.000     0.000    0.0011
   06/26/2005 13:05:00      0.000     0.000    0.0010
   06/26/2005 13:10:00      0.000     0.000    0.0009
   06/26/2005 13:15:00      0.000     0.000    0.0008
   06/26/2005 13:20:00      0.000     0.000    0.0007
   06/26/2005 13:25:00      0.000     0.000    0.0006
   06/26/2005 13:30:00      0.000     0.000    0.0006
   06/26/2005 13:35:00      0.000     0.000    0.0005
   06/26/2005 13:40:00      0.000     0.000    0.0005
   06/26/2005 13:45:00      0.000     0.000    0.0000
   06/26/2005 13:50:00      0.000     0.000    0.0000
   06/26/2005 13:55:00      0.000     0.000    0.0000
   06/26/2005 14:00:00      0.000     0.000    0.0000
   06/26/2005 14:05:00      0.000     0.000    0.0000
   06/26/2005 14:10:00      0.000     0.000    0.0000
   06/26/2005 14:15:00      0.000     0.000    0.0000
   06/26/2005 14:20:00      0.000     0.000    0.0000
   06/26/2005 14:25:00      0.000     0.000    0.0000
   06/26/2005 14:30:00      0.000     0.000    0.0000
   06/26/2005 14:35:00      0.000     0.000    0.0000
   06/26/2005 14:40:00      0.000     0.000    0.0000
   06/26/2005 14:45:00      0.000     0.000    0.0000
   06/26/2005 14:50:00      0.000     0.000    0.0000
   06/26/2005 14:55:00      0.000     0.000    0.0000
   06/26/2005 15:00:00      0.000     0.000    0.0000
   06/26/2005 15:05:00      0.000     0.000    0.0000
   06/26/2005 15:10:00      0.000     0.000    0.0000
   06/26/2005 15:15:00      0.000     0.000    0.0000
   06/26/2005 15:20:00      0.000     0.000    0.0000
   06/26/2005 15:25:00      0.000     0.000    0.0000
   06/26/2005 15:30:00      0.000     0.000    0.0000
   06/26/2005 15:35:00      0.000     0.000    0.0000
   06/26/2005 15:40:00      0.000     0.000    0.0000
   06/26/2005 15:45:00      0.000     0.000    0.0000
   06/26/2005 15:50:00      0.000     0.000    0.0000
   06/26/2005 15:55:00      0.000     0.000    0.0000
  
  
  <<< Subcatchment S5 >>>
  ---------------------------------------------------
  Date        Time        Precip.    Losses    Runoff
                            mm/hr     mm/hr       CMS
  ---------------------------------------------------
   06/26/2005 03:50:00      2.400     1.920    0.0000
   06/26/2005 03:55:00     10.800     8.640    0.0000
   06/26/2005 04:00:00     14.400    11.520    0.0016
   06/26/2005 04:05:00      2.400     1.920    0.0078
   06/26/2005 04:10:00      3.600     2.880    0.0082
   06/26/2005 04:15:00     31.200    24.960    0.0098
   06/26/2005 04:20:00     24.000    19.200    0.0476
   06/26/2005 04:25:00     10.800     8.640    0.0729
   06/26/2005 04:30:00      1.200     0.960    0.0669
   06/26/2005 04:35:00      0.000     0.000    0.0471
   06/26/2005 04:40:00      0.000     0.000    0.0334
   06/26/2005 04:45:00      0.000     0.000    0.0247
   06/26/2005 04:50:00      0.000     0.000    0.0189
   06/26/2005 04:55:00      0.000     0.000    0.0148
   06/26/2005 05:00:00      0.000     0.000    0.0119
   06/26/2005 05:05:00      0.000     0.000    0.0097
   06/26/2005 05:10:00      0.000     0.000    0.0080
   06/26/2005 05:15:00      1.200     0.960    0.0067
   06/26/2005 05:20:00      0.000     0.000    0.0066
   06/26/2005 05:25:00      0.000     0.000    0.0056
   06/26/2005 05:30:00      0.000     0.000    0.0048
   06/26/2005 05:35:00      0.000     0.000    0.0042
   06/26/2005 05:40:00      1.200     0.960    0.0037
   06/26/2005 05:45:00      2.400     1.920    0.0040
   06/26/2005 05:50:00      0.000     0.000    0.0051
   06/26/2005 05:55:00      6.000     4.800    0.0044
   06/26/2005 06:00:00      0.000     0.000    0.0084
   06/26/2005 06:05:00      1.200     0.960    0.0071
   06/26/2005 06:10:00      0.000     0.000    0.0069
   06/26/2005 06:15:00      0.000     0.000    0.0059
   06/26/2005 06:20:00      0.000     0.000    0.0050
   06/26/2005 06:25:00      0.000     0.000    0.0043
   06/26/2005 06:30:00      1.200     0.960    0.0038
   06/26/2005 06:35:00      0.000     0.000    0.0041
   06/26/2005 06:40:00      0.000     0.000    0.0036
   06/26/2005 06:45:00      0.000     0.000    0.0031
   06/26/2005 06:50:00      0.000     0.000    0.0028
   06/26/2005 06:55:00      0.000     0.000    0.0025
   06/26/2005 07:00:00      4.800     3.840    0.0022
   06/26/2005 07:05:00      1.200     0.960    0.0050
   06/26/2005 07:10:00      1.200     0.960    0.0051
   06/26/2005 07:15:00      3.600     2.880    0.0053
   06/26/2005 07:20:00      2.400     1.920    0.0073
   06/26/2005 07:25:00      6.000     4.800    0.0081
   06/26/2005 07:30:00      7.200     5.760    0.0122
   06/26/2005 07:35:00     12.000     9.600    0.0174
   06/26/2005 07:40:00     39.600    31.680    0.0281
   06/26/2005 07:45:00     40.800    32.640    0.0850
   06/26/2005 07:50:00     45.600    36.480    0.1357
   06/26/2005 07:55:00     34.800    27.840    0.1805
   06/26/2005 08:00:00     12.000     9.600    0.1800
   06/26/2005 08:05:00     21.600    17.280    0.1277
   06/26/2005 08:10:00     20.400    16.320    0.1208
   06/26/2005 08:15:00     14.400    11.520    0.1144
   06/26/2005 08:20:00     42.000    33.600    0.0984
   06/26/2005 08:25:00     27.600    22.080    0.1478
   06/26/2005 08:30:00     16.800    13.440    0.1454
   06/26/2005 08:35:00      7.200     5.760    0.1204
   06/26/2005 08:40:00      2.400     1.920    0.0876
   06/26/2005 08:45:00      2.400     1.920    0.0609
   06/26/2005 08:50:00      1.200     0.960    0.0454
   06/26/2005 08:55:00      1.200     0.960    0.0341
   06/26/2005 09:00:00      6.000     4.800    0.0267
   06/26/2005 09:05:00      7.200     5.760    0.0278
   06/26/2005 09:10:00      6.000     4.800    0.0302
   06/26/2005 09:15:00      2.400     1.920    0.0304
   06/26/2005 09:20:00      4.800     3.840    0.0258
   06/26/2005 09:25:00      4.800     3.840    0.0255
   06/26/2005 09:30:00      7.200     5.760    0.0253
   06/26/2005 09:35:00     15.600    12.480    0.0283
   06/26/2005 09:40:00     15.600    12.480    0.0429
   06/26/2005 09:45:00     12.000     9.600    0.0546
   06/26/2005 09:50:00     12.000     9.600    0.0570
   06/26/2005 09:55:00      4.800     3.840    0.0586
   06/26/2005 10:00:00     12.000     9.600    0.0478
   06/26/2005 10:05:00      8.400     6.720    0.0522
   06/26/2005 10:10:00      1.200     0.960    0.0494
   06/26/2005 10:15:00      2.400     1.920    0.0366
   06/26/2005 10:20:00      4.800     3.840    0.0300
   06/26/2005 10:25:00      3.600     2.880    0.0286
   06/26/2005 10:30:00      4.800     3.840    0.0260
   06/26/2005 10:35:00     15.600    12.480    0.0257
   06/26/2005 10:40:00     12.000     9.600    0.0407
   06/26/2005 10:45:00     18.000    14.400    0.0471
   06/26/2005 10:50:00     42.000    33.600    0.0618
   06/26/2005 10:55:00     16.800    13.440    0.1208
   06/26/2005 11:00:00     14.400    11.520    0.1069
   06/26/2005 11:05:00     40.800    32.640    0.0941
   06/26/2005 11:10:00     37.200    29.760    0.1421
   06/26/2005 11:15:00     46.800    37.440    0.1643
   06/26/2005 11:20:00     27.600    22.080    0.2004
   06/26/2005 11:25:00     31.200    24.960    0.1731
   06/26/2005 11:30:00     13.200    10.560    0.1675
   06/26/2005 11:35:00      1.200     0.960    0.1241
   06/26/2005 11:40:00      1.200     0.960    0.0782
   06/26/2005 11:45:00      0.000     0.000    0.0536
   06/26/2005 11:50:00      0.000     0.000    0.0374
   06/26/2005 11:55:00      0.000     0.000    0.0273
   06/26/2005 12:00:00      0.000     0.000    0.0206
   06/26/2005 12:05:00      0.000     0.000    0.0161
   06/26/2005 12:10:00      0.000     0.000    0.0128
   06/26/2005 12:15:00      0.000     0.000    0.0104
   06/26/2005 12:20:00      0.000     0.000    0.0085
   06/26/2005 12:25:00      0.000     0.000    0.0071
   06/26/2005 12:30:00      0.000     0.000    0.0060
   06/26/2005 12:35:00      0.000     0.000    0.0052
   06/26/2005 12:40:00      0.000     0.000    0.0045
   06/26/2005 12:45:00      0.000     0.000    0.0039
   06/26/2005 12:50:00      0.000     0.000    0.0034
   06/26/2005 12:55:00      0.000     0.000    0.0030
   06/26/2005 13:00:00      0.000     0.000    0.0027
   06/26/2005 13:05:00      0.000     0.000    0.0024
   06/26/2005 13:10:00      0.000     0.000    0.0021
   06/26/2005 13:15:00      0.000     0.000    0.0019
   06/26/2005 13:20:00      0.000     0.000    0.0017
   06/26/2005 13:25:00      0.000     0.000    0.0016
   06/26/2005 13:30:00      0.000     0.000    0.0014
   06/26/2005 13:35:00      0.000     0.000    0.0013
   06/26/2005 13:40:00      0.000     0.000    0.0012
   06/26/2005 13:45:00      0.000     0.000    0.0011
   06/26/2005 13:50:00      0.000     0.000    0.0010
   06/26/2005 13:55:00      0.000     0.000    0.0009
   06/26/2005 14:00:00      0.000     0.000    0.0009
   06/26/2005 14:05:00      0.000     0.000    0.0008
   06/26/2005 14:10:00      0.000     0.000    0.0008
   06/26/2005 14:15:00      0.000     0.000    0.0007
   06/26/2005 14:20:00      0.000     0.000    0.0007
   06/26/2005 14:25:00      0.000     0.000    0.0000
   06/26/2005 14:30:00      0.000     0.000    0.0000
   06/26/2005 14:35:00      0.000     0.000    0.0000
   06/26/2005 14:40:00      0.000     0.000    0.0000
   06/26/2005 14:45:00      0.000     0.000    0.0000
   06/26/2005 14:50:00      0.000     0.000    0.0000
   06/26/2005 14:55:00      0.000     0.000    0.0000
   06/26/2005 15:00:00      0.000     0.000    0.0000
   06/26/2005 15:05:00      0.000     0.000    0.0000
   06/26/2005 15:10:00      0.000     0.000    0.0000
   06/26/2005 15:15:00      0.000     0.000    0.0000
   06/26/2005 15:20:00      0.000     0.000    0.0000
   06/26/2005 15:25:00      0.000     0.000    0.0000
   06/26/2005 15:30:00      0.000     0.000    0.0000
   06/26/2005 15:35:00      0.000     0.000    0.0000
   06/26/2005 15:40:00      0.000     0.000    0.0000
   06/26/2005 15:45:00      0.000     0.000    0.0000
   06/26/2005 15:50:00      0.000     0.000    0.0000
   06/26/2005 15:55:00      0.000     0.000    0.0000
  
  
  <<< Subcatchment S6 >>>
  ---------------------------------------------------
  Date        Time        Precip.    Losses    Runoff
                            mm/hr     mm/hr       CMS
  ---------------------------------------------------
   06/26/2005 03:50:00      2.400     0.960    0.0000
   06/26/2005 03:55:00     10.800     4.320    0.0000
   06/26/2005 04:00:00     14.400     5.760    0.0017
   06/26/2005 04:05:00      2.400     0.960    0.0084
   06/26/2005 04:10:00      3.600     1.440    0.0097
   06/26/2005 04:15:00     31.200    12.480    0.0122
   06/26/2005 04:20:00     24.000     9.600    0.0569
   06/26/2005 04:25:00     10.800     4.320    0.0965
   06/26/2005 04:30:00      1.200     0.480    0.1022
   06/26/2005 04:35:00      0.000     0.000    0.0851
   06/26/2005 04:40:00      0.000     0.000    0.0698
   06/26/2005 04:45:00      0.000     0.000    0.0581
   06/26/2005 04:50:00      0.000     0.000    0.0489
   06/26/2005 04:55:00      0.000     0.000    0.0417
   06/26/2005 05:00:00      0.000     0.000    0.0358
   06/26/2005 05:05:00      0.000     0.000    0.0311
   06/26/2005 05:10:00      0.000     0.000    0.0272
   06/26/2005 05:15:00      1.200     0.480    0.0239
   06/26/2005 05:20:00      0.000     0.000    0.0228
   06/26/2005 05:25:00      0.000     0.000    0.0202
   06/26/2005 05:30:00      0.000     0.000    0.0180
   06/26/2005 05:35:00      0.000     0.000    0.0162
   06/26/2005 05:40:00      1.200     0.480    0.0146
   06/26/2005 05:45:00      2.400     0.960    0.0145
   06/26/2005 05:50:00      0.000     0.000    0.0158
   06/26/2005 05:55:00      6.000     2.400    0.0143
   06/26/2005 06:00:00      0.000     0.000    0.0200
   06/26/2005 06:05:00      1.200     0.480    0.0179
   06/26/2005 06:10:00      0.000     0.000    0.0175
   06/26/2005 06:15:00      0.000     0.000    0.0157
   06/26/2005 06:20:00      0.000     0.000    0.0142
   06/26/2005 06:25:00      0.000     0.000    0.0128
   06/26/2005 06:30:00      1.200     0.480    0.0117
   06/26/2005 06:35:00      0.000     0.000    0.0119
   06/26/2005 06:40:00      0.000     0.000    0.0108
   06/26/2005 06:45:00      0.000     0.000    0.0099
   06/26/2005 06:50:00      0.000     0.000    0.0091
   06/26/2005 06:55:00      0.000     0.000    0.0084
   06/26/2005 07:00:00      4.800     1.920    0.0077
   06/26/2005 07:05:00      1.200     0.480    0.0117
   06/26/2005 07:10:00      1.200     0.480    0.0119
   06/26/2005 07:15:00      3.600     1.440    0.0121
   06/26/2005 07:20:00      2.400     0.960    0.0149
   06/26/2005 07:25:00      6.000     2.400    0.0162
   06/26/2005 07:30:00      7.200     2.880    0.0219
   06/26/2005 07:35:00     12.000     4.800    0.0293
   06/26/2005 07:40:00     39.600    15.840    0.0445
   06/26/2005 07:45:00     40.800    16.320    0.1202
   06/26/2005 07:50:00     45.600    18.240    0.2031
   06/26/2005 07:55:00     34.800    13.920    0.2920
   06/26/2005 08:00:00     12.000     4.800    0.3251
   06/26/2005 08:05:00     21.600     8.640    0.2716
   06/26/2005 08:10:00     20.400     8.160    0.2660
   06/26/2005 08:15:00     14.400     5.760    0.2581
   06/26/2005 08:20:00     42.000    16.800    0.2336
   06/26/2005 08:25:00     27.600    11.040    0.3049
   06/26/2005 08:30:00     16.800     6.720    0.3096
   06/26/2005 08:35:00      7.200     2.880    0.2769
   06/26/2005 08:40:00      2.400     0.960    0.2244
   06/26/2005 08:45:00      2.400     0.960    0.1751
   06/26/2005 08:50:00      1.200     0.480    0.1410
   06/26/2005 08:55:00      1.200     0.480    0.1137
   06/26/2005 09:00:00      6.000     2.400    0.0938
   06/26/2005 09:05:00      7.200     2.880    0.0892
   06/26/2005 09:10:00      6.000     2.400    0.0882
   06/26/2005 09:15:00      2.400     0.960    0.0847
   06/26/2005 09:20:00      4.800     1.920    0.0744
   06/26/2005 09:25:00      4.800     1.920    0.0711
   06/26/2005 09:30:00      7.200     2.880    0.0685
   06/26/2005 09:35:00     15.600     6.240    0.0711
   06/26/2005 09:40:00     15.600     6.240    0.0914
   06/26/2005 09:45:00     12.000     4.800    0.1092
   06/26/2005 09:50:00     12.000     4.800    0.1155
   06/26/2005 09:55:00      4.800     1.920    0.1206
   06/26/2005 10:00:00     12.000     4.800    0.1072
   06/26/2005 10:05:00      8.400     3.360    0.1138
   06/26/2005 10:10:00      1.200     0.480    0.1105
   06/26/2005 10:15:00      2.400     0.960    0.0914
   06/26/2005 10:20:00      4.800     1.920    0.0796
   06/26/2005 10:25:00      3.600     1.440    0.0753
   06/26/2005 10:30:00      4.800     1.920    0.0694
   06/26/2005 10:35:00     15.600     6.240    0.0671
   06/26/2005 10:40:00     12.000     4.800    0.0877
   06/26/2005 10:45:00     18.000     7.200    0.0977
   06/26/2005 10:50:00     42.000    16.800    0.1205
   06/26/2005 10:55:00     16.800     6.720    0.2070
   06/26/2005 11:00:00     14.400     5.760    0.2041
   06/26/2005 11:05:00     40.800    16.320    0.1949
   06/26/2005 11:10:00     37.200    14.880    0.2692
   06/26/2005 11:15:00     46.800    18.720    0.3163
   06/26/2005 11:20:00     27.600    11.040    0.3860
   06/26/2005 11:25:00     31.200    12.480    0.3658
   06/26/2005 11:30:00     13.200     5.280    0.3649
   06/26/2005 11:35:00      1.200     0.480    0.3017
   06/26/2005 11:40:00      1.200     0.480    0.2225
   06/26/2005 11:45:00      0.000     0.000    0.1704
   06/26/2005 11:50:00      0.000     0.000    0.1316
   06/26/2005 11:55:00      0.000     0.000    0.1041
   06/26/2005 12:00:00      0.000     0.000    0.0840
   06/26/2005 12:05:00      0.000     0.000    0.0690
   06/26/2005 12:10:00      0.000     0.000    0.0574
   06/26/2005 12:15:00      0.000     0.000    0.0484
   06/26/2005 12:20:00      0.000     0.000    0.0413
   06/26/2005 12:25:00      0.000     0.000    0.0355
   06/26/2005 12:30:00      0.000     0.000    0.0308
   06/26/2005 12:35:00      0.000     0.000    0.0270
   06/26/2005 12:40:00      0.000     0.000    0.0238
   06/26/2005 12:45:00      0.000     0.000    0.0211
   06/26/2005 12:50:00      0.000     0.000    0.0188
   06/26/2005 12:55:00      0.000     0.000    0.0168
   06/26/2005 13:00:00      0.000     0.000    0.0151
   06/26/2005 13:05:00      0.000     0.000    0.0137
   06/26/2005 13:10:00      0.000     0.000    0.0124
   06/26/2005 13:15:00      0.000     0.000    0.0113
   06/26/2005 13:20:00      0.000     0.000    0.0103
   06/26/2005 13:25:00      0.000     0.000    0.0094
   06/26/2005 13:30:00      0.000     0.000    0.0087
   06/26/2005 13:35:00      0.000     0.000    0.0080
   06/26/2005 13:40:00      0.000     0.000    0.0074
   06/26/2005 13:45:00      0.000     0.000    0.0069
   06/26/2005 13:50:00      0.000     0.000    0.0064
   06/26/2005 13:55:00      0.000     0.000    0.0059
   06/26/2005 14:00:00      0.000     0.000    0.0055
   06/26/2005 14:05:00      0.000     0.000    0.0052
   06/26/2005 14:10:00      0.000     0.000    0.0048
   06/26/2005 14:15:00      0.000     0.000    0.0045
   06/26/2005 14:20:00      0.000     0.000    0.0042
   06/26/2005 14:25:00      0.000     0.000    0.0040
   06/26/2005 14:30:00      0.000     0.000    0.0038
   06/26/2005 14:35:00      0.000     0.000    0.0035
   06/26/2005 14:40:00      0.000     0.000    0.0033
   06/26/2005 14:45:00      0.000     0.000    0.0032
   06/26/2005 14:50:00      0.000     0.000    0.0030
   06/26/2005 14:55:00      0.000     0.000    0.0028
   06/26/2005 15:00:00      0.000     0.000    0.0027
   06/26/2005 15:05:00      0.000     0.000    0.0026
   06/26/2005 15:10:00      0.000     0.000    0.0024
   06/26/2005 15:15:00      0.000     0.000    0.0023
   06/26/2005 15:20:00      0.000     0.000    0.0022
   06/26/2005 15:25:00      0.000     0.000    0.0021
   06/26/2005 15:30:00      0.000     0.000    0.0020
   06/26/2005 15:35:00      0.000     0.000    0.0019
   06/26/2005 15:40:00      0.000     0.000    0.0018
   06/26/2005 15:45:00      0.000     0.000    0.0018
   06/26/2005 15:50:00      0.000     0.000    0.0017
   06/26/2005 15:55:00      0.000     0.000    0.0016
  
  
  <<< Subcatchment S7 >>>
  ---------------------------------------------------
  Date        Time        Precip.    Losses    Runoff
                            mm/hr     mm/hr       CMS
  ---------------------------------------------------
   06/26/2005 03:50:00      2.400     1.440    0.0000
   06/26/2005 03:55:00     10.800     6.480    0.0000
   06/26/2005 04:00:00     14.400     8.640    0.0016
   06/26/2005 04:05:00      2.400     1.440    0.0074
   06/26/2005 04:10:00      3.600     2.160    0.0074
   06/26/2005 04:15:00     31.200    18.720    0.0085
   06/26/2005 04:20:00     24.000    14.400    0.0425
   06/26/2005 04:25:00     10.800     6.480    0.0613
   06/26/2005 04:30:00      1.200     0.720    0.0519
   06/26/2005 04:35:00      0.000     0.000    0.0334
   06/26/2005 04:40:00      0.000     0.000    0.0220
   06/26/2005 04:45:00      0.000     0.000    0.0154
   06/26/2005 04:50:00      0.000     0.000    0.0113
   06/26/2005 04:55:00      0.000     0.000    0.0085
   06/26/2005 05:00:00      0.000     0.000    0.0067
   06/26/2005 05:05:00      0.000     0.000    0.0053
   06/26/2005 05:10:00      0.000     0.000    0.0043
   06/26/2005 05:15:00      1.200     0.720    0.0036
   06/26/2005 05:20:00      0.000     0.000    0.0037
   06/26/2005 05:25:00      0.000     0.000    0.0031
   06/26/2005 05:30:00      0.000     0.000    0.0026
   06/26/2005 05:35:00      0.000     0.000    0.0022
   06/26/2005 05:40:00      1.200     0.720    0.0019
   06/26/2005 05:45:00      2.400     1.440    0.0023
   06/26/2005 05:50:00      0.000     0.000    0.0033
   06/26/2005 05:55:00      6.000     3.600    0.0027
   06/26/2005 06:00:00      0.000     0.000    0.0062
   06/26/2005 06:05:00      1.200     0.720    0.0050
   06/26/2005 06:10:00      0.000     0.000    0.0049
   06/26/2005 06:15:00      0.000     0.000    0.0040
   06/26/2005 06:20:00      0.000     0.000    0.0033
   06/26/2005 06:25:00      0.000     0.000    0.0028
   06/26/2005 06:30:00      1.200     0.720    0.0024
   06/26/2005 06:35:00      0.000     0.000    0.0027
   06/26/2005 06:40:00      0.000     0.000    0.0023
   06/26/2005 06:45:00      0.000     0.000    0.0020
   06/26/2005 06:50:00      0.000     0.000    0.0017
   06/26/2005 06:55:00      0.000     0.000    0.0015
   06/26/2005 07:00:00      4.800     2.880    0.0013
   06/26/2005 07:05:00      1.200     0.720    0.0037
   06/26/2005 07:10:00      1.200     0.720    0.0038
   06/26/2005 07:15:00      3.600     2.160    0.0039
   06/26/2005 07:20:00      2.400     1.440    0.0056
   06/26/2005 07:25:00      6.000     3.600    0.0063
   06/26/2005 07:30:00      7.200     4.320    0.0098
   06/26/2005 07:35:00     12.000     7.200    0.0141
   06/26/2005 07:40:00     39.600    23.760    0.0230
   06/26/2005 07:45:00     40.800    24.480    0.0720
   06/26/2005 07:50:00     45.600    27.360    0.1099
   06/26/2005 07:55:00     34.800    20.880    0.1402
   06/26/2005 08:00:00     12.000     7.200    0.1329
   06/26/2005 08:05:00     21.600    12.960    0.0872
   06/26/2005 08:10:00     20.400    12.240    0.0831
   06/26/2005 08:15:00     14.400     8.640    0.0790
   06/26/2005 08:20:00     42.000    25.200    0.0668
   06/26/2005 08:25:00     27.600    16.560    0.1090
   06/26/2005 08:30:00     16.800    10.080    0.1047
   06/26/2005 08:35:00      7.200     4.320    0.0833
   06/26/2005 08:40:00      2.400     1.440    0.0574
   06/26/2005 08:45:00      2.400     1.440    0.0378
   06/26/2005 08:50:00      1.200     0.720    0.0274
   06/26/2005 08:55:00      1.200     0.720    0.0199
   06/26/2005 09:00:00      6.000     3.600    0.0153
   06/26/2005 09:05:00      7.200     4.320    0.0172
   06/26/2005 09:10:00      6.000     3.600    0.0199
   06/26/2005 09:15:00      2.400     1.440    0.0205
   06/26/2005 09:20:00      4.800     2.880    0.0170
   06/26/2005 09:25:00      4.800     2.880    0.0171
   06/26/2005 09:30:00      7.200     4.320    0.0172
   06/26/2005 09:35:00     15.600     9.360    0.0200
   06/26/2005 09:40:00     15.600     9.360    0.0324
   06/26/2005 09:45:00     12.000     7.200    0.0417
   06/26/2005 09:50:00     12.000     7.200    0.0425
   06/26/2005 09:55:00      4.800     2.880    0.0430
   06/26/2005 10:00:00     12.000     7.200    0.0333
   06/26/2005 10:05:00      8.400     5.040    0.0372
[...]
   06/26/2005 15:15:00      0.044     0.983     0.069     0.004
   06/26/2005 15:20:00      0.042     0.977     0.067     0.004
   06/26/2005 15:25:00      0.040     0.970     0.065     0.004
   06/26/2005 15:30:00      0.039     0.963     0.063     0.004
   06/26/2005 15:35:00      0.037     0.956     0.062     0.004
   06/26/2005 15:40:00      0.035     0.948     0.060     0.004
   06/26/2005 15:45:00      0.034     0.941     0.058     0.004
   06/26/2005 15:50:00      0.032     0.933     0.057     0.003
   06/26/2005 15:55:00      0.031     0.926     0.056     0.003
  
  
  <<< Link C24 >>>
  ----------------------------------------------------------------
                             Flow  Velocity     Depth  Capacity/
  Date        Time            CMS     m/sec    meters   Setting 
  ----------------------------------------------------------------
   06/26/2005 03:50:00      0.000     0.000     0.000     0.000
   06/26/2005 03:55:00      0.000     0.000     0.002     0.000
   06/26/2005 04:00:00      0.001     0.392     0.010     0.002
   06/26/2005 04:05:00      0.004     0.691     0.028     0.007
   06/26/2005 04:10:00      0.009     0.732     0.044     0.013
   06/26/2005 04:15:00      0.011     0.705     0.051     0.017
   06/26/2005 04:20:00      0.041     1.140     0.089     0.038
   06/26/2005 04:25:00      0.088     1.328     0.134     0.069
   06/26/2005 04:30:00      0.104     1.359     0.148     0.081
   06/26/2005 04:35:00      0.094     1.322     0.141     0.075
   06/26/2005 04:40:00      0.079     1.273     0.128     0.065
   06/26/2005 04:45:00      0.066     1.227     0.116     0.057
   06/26/2005 04:50:00      0.056     1.185     0.107     0.050
   06/26/2005 04:55:00      0.048     1.141     0.099     0.045
   06/26/2005 05:00:00      0.042     1.102     0.092     0.040
   06/26/2005 05:05:00      0.037     1.064     0.086     0.036
   06/26/2005 05:10:00      0.032     1.023     0.081     0.033
   06/26/2005 05:15:00      0.028     0.986     0.076     0.030
   06/26/2005 05:20:00      0.026     0.970     0.073     0.029
   06/26/2005 05:25:00      0.024     0.946     0.070     0.027
   06/26/2005 05:30:00      0.022     0.916     0.067     0.025
   06/26/2005 05:35:00      0.019     0.887     0.063     0.023
   06/26/2005 05:40:00      0.018     0.859     0.060     0.022
   06/26/2005 05:45:00      0.017     0.854     0.058     0.021
   06/26/2005 05:50:00      0.017     0.876     0.059     0.021
   06/26/2005 05:55:00      0.017     0.861     0.059     0.021
   06/26/2005 06:00:00      0.020     0.916     0.063     0.023
   06/26/2005 06:05:00      0.021     0.914     0.066     0.024
   06/26/2005 06:10:00      0.020     0.875     0.065     0.024
   06/26/2005 06:15:00      0.018     0.847     0.063     0.023
   06/26/2005 06:20:00      0.017     0.817     0.060     0.022
   06/26/2005 06:25:00      0.015     0.794     0.057     0.020
   06/26/2005 06:30:00      0.014     0.778     0.055     0.019
   06/26/2005 06:35:00      0.013     0.780     0.053     0.018
   06/26/2005 06:40:00      0.013     0.774     0.052     0.017
   06/26/2005 06:45:00      0.012     0.754     0.050     0.016
   06/26/2005 06:50:00      0.011     0.738     0.048     0.015
   06/26/2005 06:55:00      0.010     0.726     0.046     0.015
   06/26/2005 07:00:00      0.009     0.715     0.044     0.014
   06/26/2005 07:05:00      0.011     0.780     0.047     0.015
   06/26/2005 07:10:00      0.013     0.811     0.051     0.017
   06/26/2005 07:15:00      0.013     0.790     0.053     0.018
   06/26/2005 07:20:00      0.015     0.816     0.056     0.020
   06/26/2005 07:25:00      0.017     0.843     0.060     0.021
   06/26/2005 07:30:00      0.021     0.904     0.067     0.025
   06/26/2005 07:35:00      0.029     0.978     0.077     0.031
   06/26/2005 07:40:00      0.042     1.096     0.092     0.040
   06/26/2005 07:45:00      0.103     1.467     0.139     0.074
   06/26/2005 07:50:00      0.192     1.701     0.194     0.119
   06/26/2005 07:55:00      0.286     1.915     0.236     0.157
   06/26/2005 08:00:00      0.337     2.018     0.255     0.176
   06/26/2005 08:05:00      0.303     1.966     0.241     0.162
   06/26/2005 08:10:00      0.289     1.980     0.232     0.154
   06/26/2005 08:15:00      0.283     1.973     0.229     0.151
   06/26/2005 08:20:00      0.262     1.927     0.221     0.143
   06/26/2005 08:25:00      0.316     2.063     0.240     0.161
   06/26/2005 08:30:00      0.336     2.067     0.250     0.171
   06/26/2005 08:35:00      0.311     2.018     0.241     0.162
   06/26/2005 08:40:00      0.261     1.921     0.220     0.143
   06/26/2005 08:45:00      0.208     1.806     0.197     0.121
   06/26/2005 08:50:00      0.169     1.709     0.177     0.104
   06/26/2005 08:55:00      0.138     1.613     0.160     0.090
   06/26/2005 09:00:00      0.114     1.526     0.146     0.079
   06/26/2005 09:05:00      0.104     1.493     0.139     0.073
   06/26/2005 09:10:00      0.101     1.480     0.137     0.072
   06/26/2005 09:15:00      0.097     1.451     0.135     0.071
   06/26/2005 09:20:00      0.088     1.393     0.130     0.067
   06/26/2005 09:25:00      0.082     1.364     0.125     0.063
   06/26/2005 09:30:00      0.079     1.347     0.123     0.061
   06/26/2005 09:35:00      0.079     1.352     0.123     0.062
   06/26/2005 09:40:00      0.095     1.438     0.134     0.069
   06/26/2005 09:45:00      0.115     1.500     0.148     0.081
   06/26/2005 09:50:00      0.125     1.519     0.156     0.086
   06/26/2005 09:55:00      0.130     1.539     0.159     0.089
   06/26/2005 10:00:00      0.122     1.501     0.154     0.085
   06/26/2005 10:05:00      0.123     1.527     0.154     0.085
   06/26/2005 10:10:00      0.123     1.522     0.154     0.085
   06/26/2005 10:15:00      0.107     1.448     0.145     0.078
   06/26/2005 10:20:00      0.092     1.393     0.134     0.070
   06/26/2005 10:25:00      0.086     1.375     0.128     0.065
   06/26/2005 10:30:00      0.080     1.347     0.124     0.062
   06/26/2005 10:35:00      0.076     1.329     0.121     0.060
   06/26/2005 10:40:00      0.090     1.421     0.130     0.067
   06/26/2005 10:45:00      0.104     1.457     0.141     0.075
   06/26/2005 10:50:00      0.125     1.533     0.154     0.085
   06/26/2005 10:55:00      0.200     1.781     0.193     0.118
   06/26/2005 11:00:00      0.220     1.772     0.207     0.131
   06/26/2005 11:05:00      0.213     1.771     0.203     0.127
   06/26/2005 11:10:00      0.273     1.951     0.225     0.147
   06/26/2005 11:15:00      0.330     2.045     0.249     0.170
   06/26/2005 11:20:00      0.401     2.174     0.274     0.194
   06/26/2005 11:25:00      0.400     2.162     0.274     0.195
   06/26/2005 11:30:00      0.398     2.182     0.271     0.192
   06/26/2005 11:35:00      0.346     2.090     0.253     0.174
   06/26/2005 11:40:00      0.267     1.942     0.222     0.145
   06/26/2005 11:45:00      0.206     1.813     0.195     0.120
   06/26/2005 11:50:00      0.161     1.696     0.172     0.100
   06/26/2005 11:55:00      0.128     1.591     0.154     0.085
   06/26/2005 12:00:00      0.104     1.494     0.139     0.073
   06/26/2005 12:05:00      0.086     1.411     0.127     0.064
   06/26/2005 12:10:00      0.072     1.337     0.116     0.056
   06/26/2005 12:15:00      0.061     1.274     0.107     0.050
   06/26/2005 12:20:00      0.052     1.214     0.099     0.045
   06/26/2005 12:25:00      0.045     1.162     0.093     0.040
   06/26/2005 12:30:00      0.039     1.116     0.087     0.037
   06/26/2005 12:35:00      0.034     1.069     0.082     0.034
   06/26/2005 12:40:00      0.030     1.026     0.077     0.031
   06/26/2005 12:45:00      0.027     0.988     0.073     0.028
   06/26/2005 12:50:00      0.024     0.958     0.069     0.026
   06/26/2005 12:55:00      0.021     0.931     0.065     0.024
   06/26/2005 13:00:00      0.019     0.901     0.062     0.022
   06/26/2005 13:05:00      0.017     0.873     0.059     0.021
   06/26/2005 13:10:00      0.016     0.848     0.056     0.020
   06/26/2005 13:15:00      0.014     0.825     0.054     0.018
   06/26/2005 13:20:00      0.013     0.807     0.051     0.017
   06/26/2005 13:25:00      0.012     0.790     0.049     0.016
   06/26/2005 13:30:00      0.011     0.775     0.047     0.015
   06/26/2005 13:35:00      0.010     0.761     0.045     0.014
   06/26/2005 13:40:00      0.009     0.748     0.044     0.013
   06/26/2005 13:45:00      0.009     0.734     0.042     0.013
   06/26/2005 13:50:00      0.008     0.720     0.041     0.012
   06/26/2005 13:55:00      0.008     0.706     0.039     0.011
   06/26/2005 14:00:00      0.007     0.694     0.038     0.011
   06/26/2005 14:05:00      0.007     0.681     0.037     0.010
   06/26/2005 14:10:00      0.006     0.670     0.035     0.010
   06/26/2005 14:15:00      0.006     0.659     0.034     0.009
   06/26/2005 14:20:00      0.005     0.649     0.033     0.009
   06/26/2005 14:25:00      0.005     0.639     0.032     0.008
   06/26/2005 14:30:00      0.005     0.630     0.031     0.008
   06/26/2005 14:35:00      0.005     0.622     0.030     0.008
   06/26/2005 14:40:00      0.004     0.614     0.029     0.007
   06/26/2005 14:45:00      0.004     0.606     0.029     0.007
   06/26/2005 14:50:00      0.004     0.599     0.028     0.007
   06/26/2005 14:55:00      0.004     0.592     0.027     0.006
   06/26/2005 15:00:00      0.003     0.585     0.026     0.006
   06/26/2005 15:05:00      0.003     0.579     0.026     0.006
   06/26/2005 15:10:00      0.003     0.573     0.025     0.006
   06/26/2005 15:15:00      0.003     0.567     0.024     0.006
   06/26/2005 15:20:00      0.003     0.561     0.024     0.005
   06/26/2005 15:25:00      0.003     0.556     0.023     0.005
   06/26/2005 15:30:00      0.003     0.551     0.023     0.005
   06/26/2005 15:35:00      0.002     0.546     0.022     0.005
   06/26/2005 15:40:00      0.002     0.541     0.022     0.005
   06/26/2005 15:45:00      0.002     0.535     0.021     0.004
   06/26/2005 15:50:00      0.002     0.529     0.021     0.004
   06/26/2005 15:55:00      0.002     0.523     0.020     0.004
  
  
  <<< Link C22 >>>
  ----------------------------------------------------------------
                             Flow  Velocity     Depth  Capacity/
  Date        Time            CMS     m/sec    meters   Setting 
  ----------------------------------------------------------------
   06/26/2005 03:50:00      0.000     0.000     0.036     0.007
   06/26/2005 03:55:00      0.000     0.001     0.029     0.005
   06/26/2005 04:00:00      0.000     0.041     0.027     0.004
   06/26/2005 04:05:00      0.003     0.346     0.033     0.006
   06/26/2005 04:10:00      0.009     0.667     0.041     0.008
   06/26/2005 04:15:00      0.012     0.719     0.047     0.010
   06/26/2005 04:20:00      0.040     1.192     0.077     0.022
   06/26/2005 04:25:00      0.092     1.447     0.120     0.041
   06/26/2005 04:30:00      0.115     1.321     0.148     0.056
   06/26/2005 04:35:00      0.109     1.190     0.153     0.060
   06/26/2005 04:40:00      0.096     1.134     0.145     0.055
   06/26/2005 04:45:00      0.084     1.113     0.134     0.049
   06/26/2005 04:50:00      0.074     1.096     0.124     0.044
   06/26/2005 04:55:00      0.066     1.084     0.116     0.039
   06/26/2005 05:00:00      0.058     1.063     0.108     0.036
   06/26/2005 05:05:00      0.052     1.040     0.102     0.033
   06/26/2005 05:10:00      0.047     1.018     0.096     0.030
   06/26/2005 05:15:00      0.043     0.999     0.091     0.028
   06/26/2005 05:20:00      0.040     1.000     0.087     0.026
   06/26/2005 05:25:00      0.037     0.991     0.084     0.024
   06/26/2005 05:30:00      0.034     0.961     0.080     0.023
   06/26/2005 05:35:00      0.031     0.934     0.077     0.022
   06/26/2005 05:40:00      0.028     0.911     0.073     0.020
   06/26/2005 05:45:00      0.027     0.910     0.071     0.019
   06/26/2005 05:50:00      0.028     0.938     0.071     0.019
   06/26/2005 05:55:00      0.027     0.929     0.070     0.019
   06/26/2005 06:00:00      0.030     0.978     0.072     0.020
   06/26/2005 06:05:00      0.031     0.988     0.074     0.021
   06/26/2005 06:10:00      0.030     0.941     0.074     0.021
   06/26/2005 06:15:00      0.028     0.903     0.073     0.020
   06/26/2005 06:20:00      0.026     0.865     0.071     0.019
   06/26/2005 06:25:00      0.024     0.839     0.069     0.018
   06/26/2005 06:30:00      0.022     0.820     0.066     0.017
   06/26/2005 06:35:00      0.021     0.825     0.065     0.017
   06/26/2005 06:40:00      0.020     0.821     0.063     0.016
   06/26/2005 06:45:00      0.019     0.800     0.061     0.015
   06/26/2005 06:50:00      0.018     0.783     0.059     0.015
   06/26/2005 06:55:00      0.017     0.769     0.058     0.014
   06/26/2005 07:00:00      0.016     0.761     0.056     0.013
   06/26/2005 07:05:00      0.018     0.831     0.057     0.014
   06/26/2005 07:10:00      0.020     0.877     0.059     0.015
   06/26/2005 07:15:00      0.020     0.863     0.061     0.015
   06/26/2005 07:20:00      0.022     0.882     0.063     0.016
   06/26/2005 07:25:00      0.024     0.906     0.066     0.018
   06/26/2005 07:30:00      0.029     0.960     0.072     0.020
   06/26/2005 07:35:00      0.037     1.048     0.080     0.023
   06/26/2005 07:40:00      0.052     1.167     0.094     0.029
   06/26/2005 07:45:00      0.116     1.569     0.133     0.048
   06/26/2005 07:50:00      0.221     1.794     0.188     0.080
   06/26/2005 07:55:00      0.335     1.905     0.240     0.114
   06/26/2005 08:00:00      0.407     1.935     0.272     0.137
   06/26/2005 08:05:00      0.386     1.846     0.271     0.136
   06/26/2005 08:10:00      0.379     1.907     0.262     0.129
   06/26/2005 08:15:00      0.379     1.944     0.258     0.127
   06/26/2005 08:20:00      0.360     1.913     0.252     0.122
   06/26/2005 08:25:00      0.423     2.104     0.264     0.131
   06/26/2005 08:30:00      0.454     2.096     0.278     0.141
   06/26/2005 08:35:00      0.431     2.015     0.275     0.139
   06/26/2005 08:40:00      0.375     1.921     0.258     0.127
   06/26/2005 08:45:00      0.312     1.825     0.235     0.111
   06/26/2005 08:50:00      0.261     1.755     0.214     0.097
   06/26/2005 08:55:00      0.219     1.691     0.195     0.084
   06/26/2005 09:00:00      0.186     1.624     0.179     0.074
   06/26/2005 09:05:00      0.170     1.618     0.168     0.068
   06/26/2005 09:10:00      0.163     1.617     0.163     0.065
   06/26/2005 09:15:00      0.156     1.592     0.160     0.064
   06/26/2005 09:20:00      0.142     1.520     0.155     0.061
   06/26/2005 09:25:00      0.132     1.487     0.150     0.058
   06/26/2005 09:30:00      0.125     1.472     0.146     0.055
   06/26/2005 09:35:00      0.124     1.479     0.144     0.055
   06/26/2005 09:40:00      0.141     1.562     0.151     0.058
   06/26/2005 09:45:00      0.164     1.625     0.163     0.065
   06/26/2005 09:50:00      0.175     1.604     0.173     0.071
   06/26/2005 09:55:00      0.182     1.588     0.179     0.075
   06/26/2005 10:00:00      0.173     1.526     0.177     0.074
   06/26/2005 10:05:00      0.174     1.556     0.176     0.073
   06/26/2005 10:10:00      0.174     1.558     0.175     0.073
   06/26/2005 10:15:00      0.156     1.477     0.169     0.069
   06/26/2005 10:20:00      0.138     1.426     0.159     0.063
   06/26/2005 10:25:00      0.129     1.426     0.152     0.059
   06/26/2005 10:30:00      0.121     1.414     0.146     0.056
   06/26/2005 10:35:00      0.115     1.407     0.142     0.053
   06/26/2005 10:40:00      0.130     1.512     0.147     0.056
   06/26/2005 10:45:00      0.147     1.561     0.156     0.061
   06/26/2005 10:50:00      0.171     1.617     0.169     0.069
   06/26/2005 10:55:00      0.256     1.866     0.202     0.089
   06/26/2005 11:00:00      0.287     1.796     0.225     0.104
   06/26/2005 11:05:00      0.284     1.741     0.228     0.106
   06/26/2005 11:10:00      0.354     1.971     0.244     0.117
   06/26/2005 11:15:00      0.429     2.068     0.269     0.135
   06/26/2005 11:20:00      0.519     2.183     0.296     0.154
   06/26/2005 11:25:00      0.532     2.134     0.306     0.162
   06/26/2005 11:30:00      0.538     2.168     0.305     0.161
   06/26/2005 11:35:00      0.484     2.074     0.293     0.152
   06/26/2005 11:40:00      0.393     1.938     0.265     0.132
   06/26/2005 11:45:00      0.317     1.847     0.236     0.111
   06/26/2005 11:50:00      0.258     1.763     0.211     0.095
   06/26/2005 11:55:00      0.212     1.690     0.190     0.082
   06/26/2005 12:00:00      0.177     1.617     0.173     0.071
   06/26/2005 12:05:00      0.150     1.555     0.158     0.063
   06/26/2005 12:10:00      0.128     1.497     0.146     0.055
   06/26/2005 12:15:00      0.110     1.441     0.135     0.050
   06/26/2005 12:20:00      0.096     1.384     0.126     0.045
   06/26/2005 12:25:00      0.084     1.333     0.118     0.041
   06/26/2005 12:30:00      0.074     1.289     0.111     0.037
   06/26/2005 12:35:00      0.065     1.245     0.105     0.034
   06/26/2005 12:40:00      0.058     1.204     0.099     0.031
   06/26/2005 12:45:00      0.052     1.168     0.094     0.029
   06/26/2005 12:50:00      0.047     1.136     0.089     0.027
   06/26/2005 12:55:00      0.042     1.106     0.085     0.025
   06/26/2005 13:00:00      0.039     1.073     0.081     0.023
   06/26/2005 13:05:00      0.035     1.042     0.078     0.022
   06/26/2005 13:10:00      0.032     1.013     0.074     0.021
   06/26/2005 13:15:00      0.029     0.987     0.071     0.019
   06/26/2005 13:20:00      0.027     0.962     0.068     0.018
   06/26/2005 13:25:00      0.025     0.939     0.066     0.017
   06/26/2005 13:30:00      0.023     0.918     0.063     0.016
   06/26/2005 13:35:00      0.021     0.898     0.061     0.015
   06/26/2005 13:40:00      0.020     0.881     0.059     0.015
   06/26/2005 13:45:00      0.018     0.866     0.057     0.014
   06/26/2005 13:50:00      0.017     0.852     0.055     0.013
   06/26/2005 13:55:00      0.016     0.836     0.053     0.013
   06/26/2005 14:00:00      0.015     0.821     0.052     0.012
   06/26/2005 14:05:00      0.014     0.807     0.050     0.011
   06/26/2005 14:10:00      0.013     0.794     0.049     0.011
   06/26/2005 14:15:00      0.012     0.781     0.047     0.010
   06/26/2005 14:20:00      0.012     0.769     0.046     0.010
   06/26/2005 14:25:00      0.011     0.758     0.044     0.010
   06/26/2005 14:30:00      0.010     0.747     0.043     0.009
   06/26/2005 14:35:00      0.010     0.736     0.042     0.009
   06/26/2005 14:40:00      0.009     0.726     0.041     0.008
   06/26/2005 14:45:00      0.009     0.716     0.040     0.008
   06/26/2005 14:50:00      0.008     0.707     0.039     0.008
   06/26/2005 14:55:00      0.008     0.698     0.038     0.007
   06/26/2005 15:00:00      0.008     0.690     0.037     0.007
   06/26/2005 15:05:00      0.007     0.682     0.036     0.007
   06/26/2005 15:10:00      0.007     0.674     0.035     0.007
   06/26/2005 15:15:00      0.007     0.667     0.034     0.006
   06/26/2005 15:20:00      0.006     0.660     0.033     0.006
   06/26/2005 15:25:00      0.006     0.653     0.033     0.006
   06/26/2005 15:30:00      0.006     0.647     0.032     0.006
   06/26/2005 15:35:00      0.005     0.641     0.031     0.006
   06/26/2005 15:40:00      0.005     0.635     0.030     0.005
   06/26/2005 15:45:00      0.005     0.630     0.030     0.005
   06/26/2005 15:50:00      0.005     0.625     0.029     0.005
   06/26/2005 15:55:00      0.005     0.619     0.029     0.005
  

  Analysis begun on:  Wed Mar 27 16:52:05 2019
  Analysis ended on:  Wed Mar 27 16:52:06 2019
  Total elapsed time: 00:00:01