
  EPA STORM WATER MANAGEMENT MODEL - VERSION 5.1 (Build 5.1.012)
  --------------------------------------------------------------

  
  *************
  Element Count
  *************
  Number of rain gages ...... 1
  Number of subcatchments ... 15
  Number of nodes ........... 25
  Number of links ........... 24
  Number of pollutants ...... 0
  Number of land uses ....... 0
  
  
  ****************
  Raingage Summary
  ****************
                                                      Data       Recording
  Name                 Data Source                    Type       Interval 
  ------------------------------------------------------------------------
  1                    20050710                       VOLUME       5 min.
  
  
  ********************
  Subcatchment Summary
  ********************
  Name                       Area     Width   %Imperv    %Slope Rain Gage            Outlet              
  -----------------------------------------------------------------------------------------------------------
  S1                         2.21    400.00     96.80    0.0500 1                    J1                  
  S2                         7.25    400.00     63.50    0.0500 1                    J0                  
  S3                         1.53    400.00     42.80    0.0500 1                    J4                  
  S4                         6.18    400.00     37.40    0.0500 1                    J8                  
  S5                         9.28    400.00     37.30    0.0500 1                    J7                  
  S6                         6.98    400.00     72.50    0.0500 1                    J5                  
  S7                         3.28    400.00     58.60    0.0500 1                    J25                 
  S8                        10.68    400.00     89.90    0.0500 1                    J11                 
  S9                        16.43    400.00     45.50    0.0500 1                    J14                 
  S10                        2.73    400.00     52.30    0.0500 1                    J9                  
  S11                        9.27    700.00     51.10    0.0500 1                    J10                 
  S12                       10.58    400.00     77.50    0.0500 1                    J17                 
  S13                       10.08    500.00     78.80    0.0500 1                    J24                 
  S14                       11.53    400.00     57.80    0.0500 1                    J15                 
  S15                        8.92    400.00     66.50    0.0500 1                    J23                 
  
  
  ************
  Node Summary
  ************
                                           Invert      Max.    Ponded    External
  Name                 Type                 Elev.     Depth      Area    Inflow  
  -------------------------------------------------------------------------------
  J0                   JUNCTION             30.99      4.00       0.0
  J1                   JUNCTION             28.99      4.00       0.0
  J2                   JUNCTION             25.99      4.00       0.0
  J3                   JUNCTION             30.99      4.00       0.0
  J4                   JUNCTION             33.99      4.00       0.0
  J5                   JUNCTION             28.99      4.00       0.0
  J6                   JUNCTION             23.79      4.00       0.0
  J7                   JUNCTION             28.39      4.00       0.0
  J8                   JUNCTION             29.99      4.00       0.0
  J9                   JUNCTION             28.69      4.00       0.0
  J10                  JUNCTION             25.99      4.00       0.0
  J11                  JUNCTION             25.69      4.00       0.0
  J12                  JUNCTION             22.79      4.00       0.0
  J13                  JUNCTION             25.29      4.00       0.0
  J14                  JUNCTION             24.59      4.00       0.0
  J15                  JUNCTION             24.19      4.00       0.0
  J16                  JUNCTION             23.39      4.00       0.0
  J17                  JUNCTION             22.09      4.00       0.0
  J18                  JUNCTION             16.00      4.00       0.0
  J20                  JUNCTION             17.70      4.00       0.0
  J21                  JUNCTION             19.00      4.00       0.0
  J23                  JUNCTION             22.29      4.00       0.0
  J24                  JUNCTION             20.89      4.00       0.0
  J25                  JUNCTION             30.19      4.00       0.0
  J19                  OUTFALL              15.50      3.60       0.0
  
  
  ************
  Link Summary
  ************
  Name             From Node        To Node          Type            Length    %Slope Roughness
  ---------------------------------------------------------------------------------------------
  C0               J0               J2               CONDUIT          214.0    2.3371    0.0110
  C1               J1               J2               CONDUIT          152.0    1.9741    0.0110
  C2               J3               J2               CONDUIT          306.0    1.6342    0.0110
  C3               J4               J3               CONDUIT          128.0    2.3444    0.0110
  C4               J2               J6               CONDUIT          293.0    0.7509    0.0110
  C5               J5               J6               CONDUIT          246.0    2.1143    0.0110
  C6               J25              J11              CONDUIT          289.0    1.5573    0.0110
  C7               J6               J12              CONDUIT          335.0    0.2985    0.0110
  C8               J7               J6               CONDUIT          187.0    2.4606    0.0110
  C9               J8               J9               CONDUIT          119.0    1.0925    0.0110
  C10              J9               J16              CONDUIT          325.0    1.6310    0.0110
  C11              J10              J11              CONDUIT          227.0    0.1322    0.0110
  C12              J12              J18              CONDUIT          401.0    1.6935    0.0110
  C13              J17              J18              CONDUIT          267.0    2.2815    0.0110
  C14              J11              J13              CONDUIT          113.0    0.3540    0.0110
  C16              J13              J17              CONDUIT          409.0    0.7824    0.0110
  C17              J24              J20              CONDUIT          329.0    0.9697    0.0110
  C18              J20              J18              CONDUIT          215.0    0.7907    0.0110
  C19              J16              J21              CONDUIT          437.0    1.0046    0.0110
  C20              J21              J20              CONDUIT          295.0    0.4407    0.0110
  C21              J23              J21              CONDUIT          204.0    1.6130    0.0110
  C23              J18              J19              CONDUIT          161.0    0.3106    0.0110
  C24              J15              J16              CONDUIT          197.0    0.4061    0.0110
  C22              J14              J12              CONDUIT          280.0    0.6429    0.0110
  
  
  *********************
  Cross Section Summary
  *********************
                                        Full     Full     Hyd.     Max.   No. of     Full
  Conduit          Shape               Depth     Area     Rad.    Width  Barrels     Flow
  ---------------------------------------------------------------------------------------
  C0               CIRCULAR             0.70     0.38     0.17     0.70        1     1.67
  C1               CIRCULAR             0.60     0.28     0.15     0.60        1     1.02
  C2               CIRCULAR             0.80     0.50     0.20     0.80        1     2.00
  C3               CIRCULAR             0.60     0.28     0.15     0.60        1     1.11
  C4               CIRCULAR             1.20     1.13     0.30     1.20        1     3.99
  C5               CIRCULAR             0.70     0.38     0.17     0.70        1     1.59
  C6               CIRCULAR             0.80     0.50     0.20     0.80        1     1.95
  C7               CIRCULAR             2.40     4.52     0.60     2.40        1    15.99
  C8               CIRCULAR             0.70     0.38     0.17     0.70        1     1.72
  C9               CIRCULAR             0.70     0.38     0.17     0.70        1     1.14
  C10              CIRCULAR             1.00     0.79     0.25     1.00        1     3.62
  C11              CIRCULAR             1.50     1.77     0.38     1.50        1     3.04
  C12              CIRCULAR             3.00     7.07     0.75     3.00        1    69.04
  C13              CIRCULAR             1.50     1.77     0.38     1.50        1    12.62
  C14              CIRCULAR             1.50     1.77     0.38     1.50        1     4.97
  C16              CIRCULAR             1.35     1.43     0.34     1.35        1     5.58
  C17              CIRCULAR             0.80     0.50     0.20     0.80        1     1.54
  C18              CIRCULAR             3.00     7.07     0.75     3.00        1    47.18
  C19              CIRCULAR             3.00     7.07     0.75     3.00        1    53.18
  C20              CIRCULAR             3.00     7.07     0.75     3.00        1    35.22
  C21              CIRCULAR             1.00     0.79     0.25     1.00        1     3.60
  C23              CIRCULAR             3.60    10.18     0.90     3.60        1    48.08
  C24              CIRCULAR             1.10     0.95     0.28     1.10        1     2.33
  C22              CIRCULAR             1.40     1.54     0.35     1.40        1     5.57
  
  
  
  *********************************************************
  NOTE: The summary statistics displayed in this report are
  based on results found at every computational time step,  
  not just on results from each reporting time step.
  *********************************************************
  
  ****************
  Analysis Options
  ****************
  Flow Units ............... CMS
  Process Models:
    Rainfall/Runoff ........ YES
    RDII ................... NO
    Snowmelt ............... NO
    Groundwater ............ NO
    Flow Routing ........... YES
    Ponding Allowed ........ NO
    Water Quality .......... NO
  Infiltration Method ...... HORTON
  Flow Routing Method ...... DYNWAVE
  Starting Date ............ 07/10/2005 17:10:00
  Ending Date .............. 07/10/2005 22:15:00
  Antecedent Dry Days ...... 0.0
  Report Time Step ......... 00:05:00
  Wet Time Step ............ 00:05:00
  Dry Time Step ............ 01:00:00
  Routing Time Step ........ 30.00 sec
  Variable Time Step ....... YES
  Maximum Trials ........... 8
  Number of Threads ........ 1
  Head Tolerance ........... 0.005000 m
  
  
  **************************        Volume         Depth
  Runoff Quantity Continuity     hectare-m            mm
  **************************     ---------       -------
  Total Precipitation ......         3.520        30.100
  Evaporation Loss .........         0.000         0.000
  Infiltration Loss ........         1.349        11.532
  Surface Runoff ...........         1.975        16.890
  Final Storage ............         0.202         1.728
  Continuity Error (%) .....        -0.166
  
  
  **************************        Volume        Volume
  Flow Routing Continuity        hectare-m      10^6 ltr
  **************************     ---------     ---------
  Dry Weather Inflow .......         0.000         0.000
  Wet Weather Inflow .......         1.972        19.719
  Groundwater Inflow .......         0.000         0.000
  RDII Inflow ..............         0.000         0.000
  External Inflow ..........         0.000         0.000
  External Outflow .........         1.960        19.605
  Flooding Loss ............         0.000         0.000
  Evaporation Loss .........         0.000         0.000
  Exfiltration Loss ........         0.000         0.000
  Initial Stored Volume ....         0.021         0.207
  Final Stored Volume ......         0.023         0.234
  Continuity Error (%) .....         0.437
  
  
  ***************************
  Time-Step Critical Elements
  ***************************
  Link C14 (33.69%)
  
  
  ********************************
  Highest Flow Instability Indexes
  ********************************
  Link C7 (2)
  Link C3 (2)
  Link C4 (2)
  Link C0 (2)
  Link C8 (2)
  
  
  *************************
  Routing Time Step Summary
  *************************
  Minimum Time Step           :    16.03 sec
  Average Time Step           :    28.02 sec
  Maximum Time Step           :    30.00 sec
  Percent in Steady State     :    -0.00
  Average Iterations per Step :     2.00
  Percent Not Converging      :     0.00
  
  
  ***************************
  Subcatchment Runoff Summary
  ***************************
  
  --------------------------------------------------------------------------------------------------------
                            Total      Total      Total      Total      Total       Total     Peak  Runoff
                           Precip      Runon       Evap      Infil     Runoff      Runoff   Runoff   Coeff
  Subcatchment                 mm         mm         mm         mm         mm    10^6 ltr      CMS
  --------------------------------------------------------------------------------------------------------
  S1                        30.10       0.00       0.00       0.96      27.60        0.61     0.20   0.917
  S2                        30.10       0.00       0.00      10.99      17.65        1.28     0.35   0.586
  S3                        30.10       0.00       0.00      17.22      12.42        0.19     0.08   0.412
  S4                        30.10       0.00       0.00      18.84      10.65        0.66     0.22   0.354
  S5                        30.10       0.00       0.00      18.87      10.49        0.97     0.29   0.349
  S6                        30.10       0.00       0.00       8.28      20.05        1.40     0.37   0.666
  S7                        30.10       0.00       0.00      12.46      16.75        0.55     0.19   0.556
  S8                        30.10       0.00       0.00       3.04      23.66        2.53     0.54   0.786
  S9                        30.10       0.00       0.00      16.40      12.26        2.01     0.47   0.407
  S10                       30.10       0.00       0.00      14.36      15.03        0.41     0.15   0.499
  S11                       30.10       0.00       0.00      14.72      14.49        1.34     0.42   0.481
  S12                       30.10       0.00       0.00       6.77      20.72        2.19     0.49   0.688
  S13                       30.10       0.00       0.00       6.38      21.49        2.17     0.53   0.714
  S14                       30.10       0.00       0.00      12.70      15.71        1.81     0.44   0.522
  S15                       30.10       0.00       0.00      10.08      18.22        1.62     0.41   0.605
  
  
  ******************
  Node Depth Summary
  ******************
  
  ---------------------------------------------------------------------------------
                                 Average  Maximum  Maximum  Time of Max    Reported
                                   Depth    Depth      HGL   Occurrence   Max Depth
  Node                 Type       Meters   Meters   Meters  days hr:min      Meters
  ---------------------------------------------------------------------------------
  J0                   JUNCTION     0.09     0.22    31.21     0  01:55        0.21
  J1                   JUNCTION     0.07     0.18    29.17     0  01:55        0.18
  J2                   JUNCTION     0.13     0.31    26.30     0  01:58        0.31
  J3                   JUNCTION     0.04     0.11    31.10     0  01:56        0.10
  J4                   JUNCTION     0.03     0.11    34.10     0  01:55        0.11
  J5                   JUNCTION     0.09     0.23    29.22     0  01:55        0.22
  J6                   JUNCTION     0.20     0.46    24.25     0  01:59        0.46
  J7                   JUNCTION     0.08     0.19    28.58     0  01:55        0.19
  J8                   JUNCTION     0.08     0.21    30.20     0  01:55        0.20
  J9                   JUNCTION     0.08     0.21    28.90     0  01:56        0.20
  J10                  JUNCTION     0.14     0.37    26.36     0  01:56        0.36
  J11                  JUNCTION     0.21     0.48    26.17     0  01:58        0.48
  J12                  JUNCTION     0.14     0.32    23.11     0  02:01        0.32
  J13                  JUNCTION     0.18     0.42    25.71     0  01:59        0.42
  J14                  JUNCTION     0.12     0.27    24.86     0  01:57        0.27
  J15                  JUNCTION     0.15     0.33    24.52     0  01:55        0.33
  J16                  JUNCTION     0.11     0.25    23.64     0  01:58        0.25
  J17                  JUNCTION     0.16     0.36    22.45     0  02:00        0.36
  J18                  JUNCTION     0.34     0.78    16.78     0  02:02        0.77
  J20                  JUNCTION     0.17     0.38    18.08     0  02:01        0.38
  J21                  JUNCTION     0.16     0.37    19.37     0  02:00        0.37
  J23                  JUNCTION     0.10     0.23    22.52     0  01:55        0.22
  J24                  JUNCTION     0.14     0.32    21.21     0  01:56        0.32
  J25                  JUNCTION     0.06     0.17    30.36     0  01:55        0.16
  J19                  OUTFALL      0.33     0.78    16.28     0  02:03        0.77
  
  
  *******************
  Node Inflow Summary
  *******************
  
  -------------------------------------------------------------------------------------------------
                                  Maximum  Maximum                  Lateral       Total        Flow
                                  Lateral    Total  Time of Max      Inflow      Inflow     Balance
                                   Inflow   Inflow   Occurrence      Volume      Volume       Error
  Node                 Type           CMS      CMS  days hr:min    10^6 ltr    10^6 ltr     Percent
  -------------------------------------------------------------------------------------------------
  J0                   JUNCTION     0.346    0.346     0  01:55        1.28        1.28      -0.551
  J1                   JUNCTION     0.204    0.204     0  01:55       0.609       0.609      -0.004
  J2                   JUNCTION     0.000    0.622     0  01:55           0        2.08      -0.430
  J3                   JUNCTION     0.000    0.081     0  01:55           0        0.19      -0.052
  J4                   JUNCTION     0.082    0.082     0  01:55        0.19        0.19      -0.166
  J5                   JUNCTION     0.368    0.368     0  01:55         1.4         1.4       0.081
  J6                   JUNCTION     0.000    1.230     0  01:57           0        4.46      -0.125
  J7                   JUNCTION     0.286    0.286     0  01:55       0.972       0.972       0.030
  J8                   JUNCTION     0.215    0.215     0  01:55       0.657       0.657       0.024
  J9                   JUNCTION     0.151    0.364     0  01:55       0.411        1.07      -0.010
  J10                  JUNCTION     0.422    0.422     0  01:55        1.34        1.34       0.035
  J11                  JUNCTION     0.539    1.125     0  01:56        2.52        4.41       0.364
  J12                  JUNCTION     0.000    1.683     0  02:00           0        6.47      -0.288
  J13                  JUNCTION     0.000    1.111     0  01:58           0         4.4       0.193
  J14                  JUNCTION     0.465    0.465     0  01:55        2.01        2.01       0.169
  J15                  JUNCTION     0.435    0.435     0  01:55        1.81        1.81       0.129
  J16                  JUNCTION     0.000    0.796     0  01:56           0        2.87       0.266
  J17                  JUNCTION     0.490    1.602     0  01:59        2.19        6.58       0.187
  J18                  JUNCTION     0.000    4.914     0  02:01           0        19.7       0.319
  J20                  JUNCTION     0.000    1.666     0  02:00           0        6.63       0.256
  J21                  JUNCTION     0.000    1.170     0  01:58           0        4.49       0.464
  J23                  JUNCTION     0.406    0.406     0  01:55        1.62        1.62       0.050
  J24                  JUNCTION     0.529    0.529     0  01:55        2.16        2.16       0.107
  J25                  JUNCTION     0.189    0.189     0  01:55       0.549       0.549      -0.079
  J19                  OUTFALL      0.000    4.915     0  02:03           0        19.6       0.000
  
  
  **********************
  Node Surcharge Summary
  **********************
  
  No nodes were surcharged.
  
  
  *********************
  Node Flooding Summary
  *********************
  
  No nodes were flooded.
  
  
  ***********************
  Outfall Loading Summary
  ***********************
  
  -----------------------------------------------------------
                         Flow       Avg       Max       Total
                         Freq      Flow      Flow      Volume
  Outfall Node           Pcnt       CMS       CMS    10^6 ltr
  -----------------------------------------------------------
  J19                  100.00     1.201     4.915      19.605
  -----------------------------------------------------------
  System               100.00     1.201     4.915      19.605
  
  
  ********************
  Link Flow Summary
  ********************
  
  -----------------------------------------------------------------------------
                                 Maximum  Time of Max   Maximum    Max/    Max/
                                  |Flow|   Occurrence   |Veloc|    Full    Full
  Link                 Type          CMS  days hr:min     m/sec    Flow   Depth
  -----------------------------------------------------------------------------
  C0                   CONDUIT     0.346     0  01:55      4.43    0.21    0.38
  C1                   CONDUIT     0.203     0  01:55      1.92    0.20    0.41
  C2                   CONDUIT     0.077     0  01:56      0.74    0.04    0.26
  C3                   CONDUIT     0.081     0  01:55      2.36    0.07    0.18
  C4                   CONDUIT     0.596     0  01:58      1.90    0.15    0.32
  C5                   CONDUIT     0.367     0  01:55      2.05    0.23    0.49
  C6                   CONDUIT     0.184     0  01:56      0.99    0.09    0.40
  C7                   CONDUIT     1.221     0  02:00      2.55    0.08    0.16
  C8                   CONDUIT     0.285     0  01:55      1.73    0.17    0.46
  C9                   CONDUIT     0.215     0  01:55      2.24    0.19    0.30
  C10                  CONDUIT     0.357     0  01:56      2.64    0.10    0.23
  C11                  CONDUIT     0.408     0  01:56      1.00    0.13    0.28
  C12                  CONDUIT     1.671     0  02:01      2.59    0.02    0.18
  C13                  CONDUIT     1.599     0  02:00      2.66    0.13    0.38
  C14                  CONDUIT     1.111     0  01:58      2.51    0.22    0.30
  C16                  CONDUIT     1.112     0  01:59      3.26    0.20    0.29
  C17                  CONDUIT     0.526     0  01:56      2.63    0.34    0.44
  C18                  CONDUIT     1.655     0  02:01      1.72    0.04    0.19
  C19                  CONDUIT     0.771     0  01:58      2.02    0.01    0.10
  C20                  CONDUIT     1.149     0  02:00      2.23    0.03    0.13
  C21                  CONDUIT     0.406     0  01:55      2.23    0.11    0.30
  C23                  CONDUIT     4.915     0  02:03      3.66    0.10    0.22
  C24                  CONDUIT     0.439     0  01:56      2.20    0.19    0.26
  C22                  CONDUIT     0.464     0  01:57      2.09    0.08    0.21
  
  
  ***************************
  Flow Classification Summary
  ***************************
  
  -------------------------------------------------------------------------------------
                      Adjusted    ---------- Fraction of Time in Flow Class ---------- 
                       /Actual         Up    Down  Sub   Sup   Up    Down  Norm  Inlet 
  Conduit               Length    Dry  Dry   Dry   Crit  Crit  Crit  Crit  Ltd   Ctrl  
  -------------------------------------------------------------------------------------
  C0                      1.00   0.00  0.00  0.00  0.06  0.94  0.00  0.00  1.00  0.00
  C1                      1.00   0.00  0.02  0.00  0.47  0.51  0.00  0.00  0.98  0.00
  C2                      1.00   0.00  0.02  0.00  0.98  0.00  0.00  0.00  0.98  0.00
  C3                      1.00   0.02  0.00  0.00  0.01  0.97  0.00  0.00  0.76  0.00
  C4                      1.00   0.00  0.00  0.00  0.60  0.40  0.00  0.00  1.00  0.00
  C5                      1.00   0.00  0.02  0.00  0.11  0.87  0.00  0.00  0.98  0.00
  C6                      1.00   0.02  0.00  0.00  0.94  0.04  0.00  0.00  0.98  0.00
  C7                      1.00   0.00  0.00  0.00  0.00  1.00  0.00  0.00  0.00  0.00
  C8                      1.00   0.00  0.02  0.00  0.80  0.18  0.00  0.00  0.98  0.00
  C9                      1.00   0.02  0.00  0.00  0.03  0.96  0.00  0.00  0.89  0.00
  C10                     1.00   0.02  0.00  0.00  0.12  0.86  0.00  0.00  0.87  0.00
  C11                     1.00   0.02  0.00  0.00  0.98  0.00  0.00  0.00  0.89  0.00
  C12                     1.00   0.00  0.00  0.00  0.93  0.07  0.00  0.00  1.00  0.00
  C13                     1.00   0.00  0.02  0.00  0.08  0.89  0.00  0.00  0.98  0.00
  C14                     1.00   0.02  0.00  0.00  0.05  0.93  0.00  0.00  0.17  0.00
  C16                     1.00   0.02  0.00  0.00  0.07  0.91  0.00  0.00  0.06  0.00
  C17                     1.00   0.02  0.00  0.00  0.02  0.96  0.00  0.00  0.86  0.00
  C18                     1.00   0.00  0.02  0.00  0.98  0.00  0.00  0.00  0.98  0.00
  C19                     1.00   0.02  0.00  0.00  0.06  0.92  0.00  0.00  0.98  0.00
  C20                     1.00   0.02  0.00  0.00  0.08  0.90  0.00  0.00  0.67  0.00
  C21                     1.00   0.02  0.00  0.00  0.02  0.96  0.00  0.00  0.91  0.00
  C23                     1.00   0.00  0.00  0.00  0.00  1.00  0.00  0.00  0.45  0.00
  C24                     1.00   0.02  0.00  0.00  0.04  0.94  0.00  0.00  0.00  0.00
  C22                     1.00   0.00  0.02  0.00  0.06  0.92  0.00  0.00  0.89  0.00
  
  
  *************************
  Conduit Surcharge Summary
  *************************
  
  No conduits were surcharged.
  
  
  ********************
  Subcatchment Results
  ********************
  
  <<< Subcatchment S1 >>>
  ---------------------------------------------------
  Date        Time        Precip.    Losses    Runoff
                            mm/hr     mm/hr       CMS
  ---------------------------------------------------
   07/10/2005 17:15:00      1.200     0.038    0.0000
   07/10/2005 17:20:00      3.600     0.115    0.0000
   07/10/2005 17:25:00      7.200     0.230    0.0003
   07/10/2005 17:30:00     10.800     0.346    0.0014
   07/10/2005 17:35:00      6.000     0.192    0.0045
   07/10/2005 17:40:00      3.600     0.115    0.0080
   07/10/2005 17:45:00      2.400     0.077    0.0097
   07/10/2005 17:50:00      3.600     0.115    0.0103
   07/10/2005 17:55:00      3.600     0.115    0.0120
   07/10/2005 18:00:00      3.600     0.115    0.0135
   07/10/2005 18:05:00      8.400     0.269    0.0149
   07/10/2005 18:10:00     21.600     0.691    0.0217
   07/10/2005 18:15:00     12.000     0.384    0.0478
   07/10/2005 18:20:00     24.000     0.768    0.0544
   07/10/2005 18:25:00     24.000     0.768    0.0817
   07/10/2005 18:30:00      7.200     0.230    0.1025
   07/10/2005 18:35:00     18.000     0.576    0.0822
   07/10/2005 18:40:00      4.800     0.154    0.0904
   07/10/2005 18:45:00     10.800     0.346    0.0703
   07/10/2005 18:50:00     25.200     0.806    0.0684
   07/10/2005 18:55:00     28.800     0.922    0.0951
   07/10/2005 19:00:00     54.000     1.728    0.1225
   07/10/2005 19:05:00     21.600     0.691    0.2036
   07/10/2005 19:10:00     10.800     0.346    0.1717
   07/10/2005 19:15:00      2.400     0.077    0.1291
   07/10/2005 19:20:00      1.200     0.038    0.0881
   07/10/2005 19:25:00      0.000     0.000    0.0624
   07/10/2005 19:30:00      0.000     0.000    0.0447
   07/10/2005 19:35:00      1.200     0.038    0.0333
   07/10/2005 19:40:00      0.000     0.000    0.0272
   07/10/2005 19:45:00      0.000     0.000    0.0213
   07/10/2005 19:50:00      0.000     0.000    0.0170
   07/10/2005 19:55:00      1.200     0.038    0.0139
   07/10/2005 20:00:00      8.400     0.269    0.0127
   07/10/2005 20:05:00      7.200     0.230    0.0197
   07/10/2005 20:10:00      2.400     0.077    0.0246
   07/10/2005 20:15:00      1.200     0.038    0.0223
   07/10/2005 20:20:00      2.400     0.077    0.0192
   07/10/2005 20:25:00      3.600     0.115    0.0182
   07/10/2005 20:30:00      3.600     0.115    0.0189
   07/10/2005 20:35:00      2.400     0.077    0.0194
   07/10/2005 20:40:00      1.200     0.038    0.0184
   07/10/2005 20:45:00      1.200     0.038    0.0162
   07/10/2005 20:50:00      0.000     0.000    0.0145
   07/10/2005 20:55:00      1.200     0.038    0.0120
   07/10/2005 21:00:00      1.200     0.038    0.0112
   07/10/2005 21:05:00      1.200     0.038    0.0105
   07/10/2005 21:10:00      1.200     0.038    0.0100
   07/10/2005 21:15:00      0.000     0.000    0.0095
   07/10/2005 21:20:00      0.000     0.000    0.0081
   07/10/2005 21:25:00      0.000     0.000    0.0070
   07/10/2005 21:30:00      0.000     0.000    0.0060
   07/10/2005 21:35:00      0.000     0.000    0.0053
   07/10/2005 21:40:00      0.000     0.000    0.0046
   07/10/2005 21:45:00      0.000     0.000    0.0041
   07/10/2005 21:50:00      0.000     0.000    0.0036
   07/10/2005 21:55:00      0.000     0.000    0.0032
   07/10/2005 22:00:00      0.000     0.000    0.0029
   07/10/2005 22:05:00      0.000     0.000    0.0026
   07/10/2005 22:10:00      0.000     0.000    0.0024
  
  
  <<< Subcatchment S2 >>>
  ---------------------------------------------------
  Date        Time        Precip.    Losses    Runoff
                            mm/hr     mm/hr       CMS
  ---------------------------------------------------
   07/10/2005 17:15:00      1.200     0.438    0.0000
   07/10/2005 17:20:00      3.600     1.314    0.0000
   07/10/2005 17:25:00      7.200     2.628    0.0000
   07/10/2005 17:30:00     10.800     3.942    0.0014
   07/10/2005 17:35:00      6.000     2.190    0.0049
   07/10/2005 17:40:00      3.600     1.314    0.0090
   07/10/2005 17:45:00      2.400     0.876    0.0116
   07/10/2005 17:50:00      3.600     1.314    0.0130
   07/10/2005 17:55:00      3.600     1.314    0.0157
   07/10/2005 18:00:00      3.600     1.314    0.0184
   07/10/2005 18:05:00      8.400     3.066    0.0211
   07/10/2005 18:10:00     21.600     7.884    0.0304
   07/10/2005 18:15:00     12.000     4.380    0.0639
   07/10/2005 18:20:00     24.000     8.760    0.0783
   07/10/2005 18:25:00     24.000     8.760    0.1195
   07/10/2005 18:30:00      7.200     2.628    0.1578
   07/10/2005 18:35:00     18.000     6.570    0.1440
   07/10/2005 18:40:00      4.800     1.752    0.1622
   07/10/2005 18:45:00     10.800     3.942    0.1410
   07/10/2005 18:50:00     25.200     9.198    0.1405
   07/10/2005 18:55:00     28.800    10.512    0.1796
   07/10/2005 19:00:00     54.000    19.710    0.2236
   07/10/2005 19:05:00     21.600     7.884    0.3463
   07/10/2005 19:10:00     10.800     3.942    0.3269
   07/10/2005 19:15:00      2.400     0.876    0.2765
   07/10/2005 19:20:00      1.200     0.438    0.2154
   07/10/2005 19:25:00      0.000     0.000    0.1697
   07/10/2005 19:30:00      0.000     0.000    0.1340
   07/10/2005 19:35:00      1.200     0.438    0.1080
   07/10/2005 19:40:00      0.000     0.000    0.0913
   07/10/2005 19:45:00      0.000     0.000    0.0758
   07/10/2005 19:50:00      0.000     0.000    0.0637
   07/10/2005 19:55:00      1.200     0.438    0.0542
   07/10/2005 20:00:00      8.400     3.066    0.0487
   07/10/2005 20:05:00      7.200     2.628    0.0571
   07/10/2005 20:10:00      2.400     0.876    0.0624
   07/10/2005 20:15:00      1.200     0.438    0.0576
   07/10/2005 20:20:00      2.400     0.876    0.0515
   07/10/2005 20:25:00      3.600     1.314    0.0486
   07/10/2005 20:30:00      3.600     1.314    0.0482
   07/10/2005 20:35:00      2.400     0.876    0.0479
   07/10/2005 20:40:00      1.200     0.438    0.0456
   07/10/2005 20:45:00      1.200     0.438    0.0415
   07/10/2005 20:50:00      0.000     0.000    0.0381
   07/10/2005 20:55:00      1.200     0.438    0.0334
   07/10/2005 21:00:00      1.200     0.438    0.0312
   07/10/2005 21:05:00      1.200     0.438    0.0294
   07/10/2005 21:10:00      1.200     0.438    0.0278
   07/10/2005 21:15:00      0.000     0.000    0.0264
   07/10/2005 21:20:00      0.000     0.000    0.0235
   07/10/2005 21:25:00      0.000     0.000    0.0211
   07/10/2005 21:30:00      0.000     0.000    0.0190
   07/10/2005 21:35:00      0.000     0.000    0.0172
   07/10/2005 21:40:00      0.000     0.000    0.0156
   07/10/2005 21:45:00      0.000     0.000    0.0142
   07/10/2005 21:50:00      0.000     0.000    0.0130
   07/10/2005 21:55:00      0.000     0.000    0.0119
   07/10/2005 22:00:00      0.000     0.000    0.0109
   07/10/2005 22:05:00      0.000     0.000    0.0101
   07/10/2005 22:10:00      0.000     0.000    0.0093
  
  
  <<< Subcatchment S3 >>>
  ---------------------------------------------------
  Date        Time        Precip.    Losses    Runoff
                            mm/hr     mm/hr       CMS
  ---------------------------------------------------
   07/10/2005 17:15:00      1.200     0.686    0.0000
   07/10/2005 17:20:00      3.600     2.059    0.0000
   07/10/2005 17:25:00      7.200     4.118    0.0003
   07/10/2005 17:30:00     10.800     6.178    0.0011
   07/10/2005 17:35:00      6.000     3.432    0.0035
   07/10/2005 17:40:00      3.600     2.059    0.0055
   07/10/2005 17:45:00      2.400     1.373    0.0058
   07/10/2005 17:50:00      3.600     2.059    0.0052
   07/10/2005 17:55:00      3.600     2.059    0.0057
   07/10/2005 18:00:00      3.600     2.059    0.0060
   07/10/2005 18:05:00      8.400     4.805    0.0062
   07/10/2005 18:10:00     21.600    12.355    0.0099
   07/10/2005 18:15:00     12.000     6.864    0.0247
   07/10/2005 18:20:00     24.000    13.728    0.0231
   07/10/2005 18:25:00     24.000    13.728    0.0350
   07/10/2005 18:30:00      7.200     4.118    0.0404
   07/10/2005 18:35:00     18.000    10.296    0.0244
   07/10/2005 18:40:00      4.800     2.746    0.0292
   07/10/2005 18:45:00     10.800     6.178    0.0181
   07/10/2005 18:50:00     25.200    14.414    0.0189
   07/10/2005 18:55:00     28.800    16.474    0.0342
   07/10/2005 19:00:00     54.000    30.888    0.0456
   07/10/2005 19:05:00     21.600    12.355    0.0824
   07/10/2005 19:10:00     10.800     6.178    0.0526
   07/10/2005 19:15:00      2.400     1.373    0.0321
   07/10/2005 19:20:00      1.200     0.686    0.0170
   07/10/2005 19:25:00      0.000     0.000    0.0102
   07/10/2005 19:30:00      0.000     0.000    0.0061
   07/10/2005 19:35:00      1.200     0.686    0.0040
   07/10/2005 19:40:00      0.000     0.000    0.0034
   07/10/2005 19:45:00      0.000     0.000    0.0024
   07/10/2005 19:50:00      0.000     0.000    0.0018
   07/10/2005 19:55:00      1.200     0.686    0.0014
   07/10/2005 20:00:00      8.400     4.805    0.0016
   07/10/2005 20:05:00      7.200     4.118    0.0058
   07/10/2005 20:10:00      2.400     1.373    0.0086
   07/10/2005 20:15:00      1.200     0.686    0.0069
   07/10/2005 20:20:00      2.400     1.373    0.0052
   07/10/2005 20:25:00      3.600     2.059    0.0049
   07/10/2005 20:30:00      3.600     2.059    0.0055
   07/10/2005 20:35:00      2.400     1.373    0.0059
   07/10/2005 20:40:00      1.200     0.686    0.0053
   07/10/2005 20:45:00      1.200     0.686    0.0043
   07/10/2005 20:50:00      0.000     0.000    0.0036
   07/10/2005 20:55:00      1.200     0.686    0.0025
   07/10/2005 21:00:00      1.200     0.686    0.0024
   07/10/2005 21:05:00      1.200     0.686    0.0024
   07/10/2005 21:10:00      1.200     0.686    0.0023
   07/10/2005 21:15:00      0.000     0.000    0.0023
   07/10/2005 21:20:00      0.000     0.000    0.0017
   07/10/2005 21:25:00      0.000     0.000    0.0013
   07/10/2005 21:30:00      0.000     0.000    0.0010
   07/10/2005 21:35:00      0.000     0.000    0.0008
   07/10/2005 21:40:00      0.000     0.000    0.0007
   07/10/2005 21:45:00      0.000     0.000    0.0006
   07/10/2005 21:50:00      0.000     0.000    0.0005
   07/10/2005 21:55:00      0.000     0.000    0.0004
   07/10/2005 22:00:00      0.000     0.000    0.0004
   07/10/2005 22:05:00      0.000     0.000    0.0003
   07/10/2005 22:10:00      0.000     0.000    0.0003
  
  
  <<< Subcatchment S4 >>>
  ---------------------------------------------------
  Date        Time        Precip.    Losses    Runoff
                            mm/hr     mm/hr       CMS
  ---------------------------------------------------
   07/10/2005 17:15:00      1.200     0.751    0.0000
   07/10/2005 17:20:00      3.600     2.254    0.0000
   07/10/2005 17:25:00      7.200     4.507    0.0000
   07/10/2005 17:30:00     10.800     6.761    0.0014
   07/10/2005 17:35:00      6.000     3.756    0.0046
   07/10/2005 17:40:00      3.600     2.254    0.0081
   07/10/2005 17:45:00      2.400     1.502    0.0100
   07/10/2005 17:50:00      3.600     2.254    0.0106
   07/10/2005 17:55:00      3.600     2.254    0.0124
   07/10/2005 18:00:00      3.600     2.254    0.0141
   07/10/2005 18:05:00      8.400     5.258    0.0156
   07/10/2005 18:10:00     21.600    13.522    0.0226
   07/10/2005 18:15:00     12.000     7.512    0.0495
   07/10/2005 18:20:00     24.000    15.024    0.0568
   07/10/2005 18:25:00     24.000    15.024    0.0855
   07/10/2005 18:30:00      7.200     4.507    0.1078
   07/10/2005 18:35:00     18.000    11.268    0.0878
   07/10/2005 18:40:00      4.800     3.005    0.0967
   07/10/2005 18:45:00     10.800     6.761    0.0761
   07/10/2005 18:50:00     25.200    15.775    0.0741
   07/10/2005 18:55:00     28.800    18.029    0.1018
   07/10/2005 19:00:00     54.000    33.804    0.1306
   07/10/2005 19:05:00     21.600    13.522    0.2154
   07/10/2005 19:10:00     10.800     6.761    0.1841
   07/10/2005 19:15:00      2.400     1.502    0.1403
   07/10/2005 19:20:00      1.200     0.751    0.0971
   07/10/2005 19:25:00      0.000     0.000    0.0696
   07/10/2005 19:30:00      0.000     0.000    0.0504
   07/10/2005 19:35:00      1.200     0.751    0.0378
   07/10/2005 19:40:00      0.000     0.000    0.0309
   07/10/2005 19:45:00      0.000     0.000    0.0244
   07/10/2005 19:50:00      0.000     0.000    0.0196
   07/10/2005 19:55:00      1.200     0.751    0.0161
   07/10/2005 20:00:00      8.400     5.258    0.0146
   07/10/2005 20:05:00      7.200     4.507    0.0218
   07/10/2005 20:10:00      2.400     1.502    0.0268
   07/10/2005 20:15:00      1.200     0.751    0.0244
   07/10/2005 20:20:00      2.400     1.502    0.0211
   07/10/2005 20:25:00      3.600     2.254    0.0200
   07/10/2005 20:30:00      3.600     2.254    0.0206
   07/10/2005 20:35:00      2.400     1.502    0.0211
   07/10/2005 20:40:00      1.200     0.751    0.0200
   07/10/2005 20:45:00      1.200     0.751    0.0177
   07/10/2005 20:50:00      0.000     0.000    0.0160
   07/10/2005 20:55:00      1.200     0.751    0.0133
   07/10/2005 21:00:00      1.200     0.751    0.0124
   07/10/2005 21:05:00      1.200     0.751    0.0116
   07/10/2005 21:10:00      1.200     0.751    0.0110
   07/10/2005 21:15:00      0.000     0.000    0.0105
   07/10/2005 21:20:00      0.000     0.000    0.0090
   07/10/2005 21:25:00      0.000     0.000    0.0078
   07/10/2005 21:30:00      0.000     0.000    0.0068
   07/10/2005 21:35:00      0.000     0.000    0.0059
   07/10/2005 21:40:00      0.000     0.000    0.0052
   07/10/2005 21:45:00      0.000     0.000    0.0046
   07/10/2005 21:50:00      0.000     0.000    0.0041
   07/10/2005 21:55:00      0.000     0.000    0.0037
   07/10/2005 22:00:00      0.000     0.000    0.0033
   07/10/2005 22:05:00      0.000     0.000    0.0030
   07/10/2005 22:10:00      0.000     0.000    0.0027
  
  
  <<< Subcatchment S5 >>>
  ---------------------------------------------------
  Date        Time        Precip.    Losses    Runoff
                            mm/hr     mm/hr       CMS
  ---------------------------------------------------
   07/10/2005 17:15:00      1.200     0.752    0.0000
   07/10/2005 17:20:00      3.600     2.257    0.0000
   07/10/2005 17:25:00      7.200     4.514    0.0000
   07/10/2005 17:30:00     10.800     6.772    0.0014
   07/10/2005 17:35:00      6.000     3.762    0.0048
   07/10/2005 17:40:00      3.600     2.257    0.0087
   07/10/2005 17:45:00      2.400     1.505    0.0110
   07/10/2005 17:50:00      3.600     2.257    0.0121
   07/10/2005 17:55:00      3.600     2.257    0.0145
   07/10/2005 18:00:00      3.600     2.257    0.0167
   07/10/2005 18:05:00      8.400     5.267    0.0189
   07/10/2005 18:10:00     21.600    13.543    0.0273
   07/10/2005 18:15:00     12.000     7.524    0.0582
   07/10/2005 18:20:00     24.000    15.048    0.0696
   07/10/2005 18:25:00     24.000    15.048    0.1055
   07/10/2005 18:30:00      7.200     4.514    0.1369
   07/10/2005 18:35:00     18.000    11.286    0.1196
   07/10/2005 18:40:00      4.800     3.010    0.1332
   07/10/2005 18:45:00     10.800     6.772    0.1114
   07/10/2005 18:50:00     25.200    15.800    0.1096
   07/10/2005 18:55:00     28.800    18.058    0.1433
   07/10/2005 19:00:00     54.000    33.858    0.1802
   07/10/2005 19:05:00     21.600    13.543    0.2860
   07/10/2005 19:10:00     10.800     6.772    0.2603
   07/10/2005 19:15:00      2.400     1.505    0.2114
   07/10/2005 19:20:00      1.200     0.752    0.1573
   07/10/2005 19:25:00      0.000     0.000    0.1193
   07/10/2005 19:30:00      0.000     0.000    0.0910
   07/10/2005 19:35:00      1.200     0.752    0.0713
   07/10/2005 19:40:00      0.000     0.000    0.0593
   07/10/2005 19:45:00      0.000     0.000    0.0482
   07/10/2005 19:50:00      0.000     0.000    0.0398
   07/10/2005 19:55:00      1.200     0.752    0.0333
   07/10/2005 20:00:00      8.400     5.267    0.0299
   07/10/2005 20:05:00      7.200     4.514    0.0380
   07/10/2005 20:10:00      2.400     1.505    0.0433
   07/10/2005 20:15:00      1.200     0.752    0.0399
   07/10/2005 20:20:00      2.400     1.505    0.0352
   07/10/2005 20:25:00      3.600     2.257    0.0333
   07/10/2005 20:30:00      3.600     2.257    0.0335
   07/10/2005 20:35:00      2.400     1.505    0.0337
   07/10/2005 20:40:00      1.200     0.752    0.0320
   07/10/2005 20:45:00      1.200     0.752    0.0289
   07/10/2005 20:50:00      0.000     0.000    0.0263
   07/10/2005 20:55:00      1.200     0.752    0.0226
   07/10/2005 21:00:00      1.200     0.752    0.0211
   07/10/2005 21:05:00      1.200     0.752    0.0199
   07/10/2005 21:10:00      1.200     0.752    0.0188
   07/10/2005 21:15:00      0.000     0.000    0.0179
   07/10/2005 21:20:00      0.000     0.000    0.0157
   07/10/2005 21:25:00      0.000     0.000    0.0139
   07/10/2005 21:30:00      0.000     0.000    0.0123
   07/10/2005 21:35:00      0.000     0.000    0.0110
   07/10/2005 21:40:00      0.000     0.000    0.0099
   07/10/2005 21:45:00      0.000     0.000    0.0089
   07/10/2005 21:50:00      0.000     0.000    0.0081
   07/10/2005 21:55:00      0.000     0.000    0.0073
   07/10/2005 22:00:00      0.000     0.000    0.0067
   07/10/2005 22:05:00      0.000     0.000    0.0061
   07/10/2005 22:10:00      0.000     0.000    0.0056
  
  
  <<< Subcatchment S6 >>>
  ---------------------------------------------------
  Date        Time        Precip.    Losses    Runoff
                            mm/hr     mm/hr       CMS
  ---------------------------------------------------
   07/10/2005 17:15:00      1.200     0.330    0.0000
   07/10/2005 17:20:00      3.600     0.990    0.0000
   07/10/2005 17:25:00      7.200     1.980    0.0000
   07/10/2005 17:30:00     10.800     2.970    0.0014
   07/10/2005 17:35:00      6.000     1.650    0.0049
   07/10/2005 17:40:00      3.600     0.990    0.0091
   07/10/2005 17:45:00      2.400     0.660    0.0117
   07/10/2005 17:50:00      3.600     0.990    0.0132
   07/10/2005 17:55:00      3.600     0.990    0.0161
   07/10/2005 18:00:00      3.600     0.990    0.0189
   07/10/2005 18:05:00      8.400     2.310    0.0218
   07/10/2005 18:10:00     21.600     5.940    0.0314
   07/10/2005 18:15:00     12.000     3.300    0.0657
   07/10/2005 18:20:00     24.000     6.600    0.0810
   07/10/2005 18:25:00     24.000     6.600    0.1240
   07/10/2005 18:30:00      7.200     1.980    0.1646
   07/10/2005 18:35:00     18.000     4.950    0.1521
   07/10/2005 18:40:00      4.800     1.320    0.1722
   07/10/2005 18:45:00     10.800     2.970    0.1514
   07/10/2005 18:50:00     25.200     6.930    0.1515
   07/10/2005 18:55:00     28.800     7.920    0.1926
   07/10/2005 19:00:00     54.000    14.850    0.2393
   07/10/2005 19:05:00     21.600     5.940    0.3679
   07/10/2005 19:10:00     10.800     2.970    0.3511
   07/10/2005 19:15:00      2.400     0.660    0.3007
   07/10/2005 19:20:00      1.200     0.330    0.2375
   07/10/2005 19:25:00      0.000     0.000    0.1894
   07/10/2005 19:30:00      0.000     0.000    0.1513
   07/10/2005 19:35:00      1.200     0.330    0.1231
   07/10/2005 19:40:00      0.000     0.000    0.1045
   07/10/2005 19:45:00      0.000     0.000    0.0874
   07/10/2005 19:50:00      0.000     0.000    0.0740
   07/10/2005 19:55:00      1.200     0.330    0.0633
   07/10/2005 20:00:00      8.400     2.310    0.0569
   07/10/2005 20:05:00      7.200     1.980    0.0654
   07/10/2005 20:10:00      2.400     0.660    0.0706
   07/10/2005 20:15:00      1.200     0.330    0.0652
   07/10/2005 20:20:00      2.400     0.660    0.0585
   07/10/2005 20:25:00      3.600     0.990    0.0551
   07/10/2005 20:30:00      3.600     0.990    0.0545
   07/10/2005 20:35:00      2.400     0.660    0.0540
   07/10/2005 20:40:00      1.200     0.330    0.0514
   07/10/2005 20:45:00      1.200     0.330    0.0469
   07/10/2005 20:50:00      0.000     0.000    0.0432
   07/10/2005 20:55:00      1.200     0.330    0.0381
   07/10/2005 21:00:00      1.200     0.330    0.0356
   07/10/2005 21:05:00      1.200     0.330    0.0335
   07/10/2005 21:10:00      1.200     0.330    0.0317
   07/10/2005 21:15:00      0.000     0.000    0.0301
   07/10/2005 21:20:00      0.000     0.000    0.0269
   07/10/2005 21:25:00      0.000     0.000    0.0242
   07/10/2005 21:30:00      0.000     0.000    0.0219
   07/10/2005 21:35:00      0.000     0.000    0.0199
   07/10/2005 21:40:00      0.000     0.000    0.0181
   07/10/2005 21:45:00      0.000     0.000    0.0165
   07/10/2005 21:50:00      0.000     0.000    0.0152
   07/10/2005 21:55:00      0.000     0.000    0.0139
   07/10/2005 22:00:00      0.000     0.000    0.0128
   07/10/2005 22:05:00      0.000     0.000    0.0119
   07/10/2005 22:10:00      0.000     0.000    0.0110
  
  
  <<< Subcatchment S7 >>>
  ---------------------------------------------------
  Date        Time        Precip.    Losses    Runoff
                            mm/hr     mm/hr       CMS
  ---------------------------------------------------
   07/10/2005 17:15:00      1.200     0.497    0.0000
   07/10/2005 17:20:00      3.600     1.490    0.0000
   07/10/2005 17:25:00      7.200     2.981    0.0003
   07/10/2005 17:30:00     10.800     4.471    0.0013
   07/10/2005 17:35:00      6.000     2.484    0.0045
   07/10/2005 17:40:00      3.600     1.490    0.0078
   07/10/2005 17:45:00      2.400     0.994    0.0094
   07/10/2005 17:50:00      3.600     1.490    0.0099
   07/10/2005 17:55:00      3.600     1.490    0.0114
   07/10/2005 18:00:00      3.600     1.490    0.0128
   07/10/2005 18:05:00      8.400     3.478    0.0140
   07/10/2005 18:10:00     21.600     8.942    0.0205
   07/10/2005 18:15:00     12.000     4.968    0.0455
   07/10/2005 18:20:00     24.000     9.936    0.0511
   07/10/2005 18:25:00     24.000     9.936    0.0766
   07/10/2005 18:30:00      7.200     2.981    0.0954
   07/10/2005 18:35:00     18.000     7.452    0.0748
   07/10/2005 18:40:00      4.800     1.987    0.0824
   07/10/2005 18:45:00     10.800     4.471    0.0629
   07/10/2005 18:50:00     25.200    10.433    0.0612
   07/10/2005 18:55:00     28.800    11.923    0.0867
   07/10/2005 19:00:00     54.000    22.356    0.1123
   07/10/2005 19:05:00     21.600     8.942    0.1885
   07/10/2005 19:10:00     10.800     4.471    0.1558
   07/10/2005 19:15:00      2.400     0.994    0.1150
   07/10/2005 19:20:00      1.200     0.497    0.0769
   07/10/2005 19:25:00      0.000     0.000    0.0536
   07/10/2005 19:30:00      0.000     0.000    0.0378
   07/10/2005 19:35:00      1.200     0.497    0.0279
   07/10/2005 19:40:00      0.000     0.000    0.0227
   07/10/2005 19:45:00      0.000     0.000    0.0176
   07/10/2005 19:50:00      0.000     0.000    0.0140
   07/10/2005 19:55:00      1.200     0.497    0.0114
   07/10/2005 20:00:00      8.400     3.478    0.0105
   07/10/2005 20:05:00      7.200     2.981    0.0172
   07/10/2005 20:10:00      2.400     0.994    0.0219
   07/10/2005 20:15:00      1.200     0.497    0.0198
   07/10/2005 20:20:00      2.400     0.994    0.0169
   07/10/2005 20:25:00      3.600     1.490    0.0161
   07/10/2005 20:30:00      3.600     1.490    0.0167
   07/10/2005 20:35:00      2.400     0.994    0.0173
   07/10/2005 20:40:00      1.200     0.497    0.0163
   07/10/2005 20:45:00      1.200     0.497    0.0143
   07/10/2005 20:50:00      0.000     0.000    0.0128
   07/10/2005 20:55:00      1.200     0.497    0.0105
   07/10/2005 21:00:00      1.200     0.497    0.0097
   07/10/2005 21:05:00      1.200     0.497    0.0092
   07/10/2005 21:10:00      1.200     0.497    0.0087
   07/10/2005 21:15:00      0.000     0.000    0.0083
   07/10/2005 21:20:00      0.000     0.000    0.0070
   07/10/2005 21:25:00      0.000     0.000    0.0060
   07/10/2005 21:30:00      0.000     0.000    0.0051
   07/10/2005 21:35:00      0.000     0.000    0.0045
   07/10/2005 21:40:00      0.000     0.000    0.0039
   07/10/2005 21:45:00      0.000     0.000    0.0034
   07/10/2005 21:50:00      0.000     0.000    0.0030
   07/10/2005 21:55:00      0.000     0.000    0.0027
   07/10/2005 22:00:00      0.000     0.000    0.0024
   07/10/2005 22:05:00      0.000     0.000    0.0022
   07/10/2005 22:10:00      0.000     0.000    0.0020
  
  
  <<< Subcatchment S8 >>>
  ---------------------------------------------------
  Date        Time        Precip.    Losses    Runoff
                            mm/hr     mm/hr       CMS
  ---------------------------------------------------
   07/10/2005 17:15:00      1.200     0.121    0.0000
   07/10/2005 17:20:00      3.600     0.364    0.0000
   07/10/2005 17:25:00      7.200     0.727    0.0000
   07/10/2005 17:30:00     10.800     1.091    0.0015
   07/10/2005 17:35:00      6.000     0.606    0.0051
   07/10/2005 17:40:00      3.600     0.364    0.0095
   07/10/2005 17:45:00      2.400     0.242    0.0126
   07/10/2005 17:50:00      3.600     0.364    0.0146
   07/10/2005 17:55:00      3.600     0.364    0.0181
   07/10/2005 18:00:00      3.600     0.364    0.0218
   07/10/2005 18:05:00      8.400     0.848    0.0256
   07/10/2005 18:10:00     21.600     2.182    0.0370
   07/10/2005 18:15:00     12.000     1.212    0.0761
   07/10/2005 18:20:00     24.000     2.424    0.0972
   07/10/2005 18:25:00     24.000     2.424    0.1509
   07/10/2005 18:30:00      7.200     0.727    0.2066
   07/10/2005 18:35:00     18.000     1.818    0.2048
   07/10/2005 18:40:00      4.800     0.485    0.2389
   07/10/2005 18:45:00     10.800     1.091    0.2249
   07/10/2005 18:50:00     25.200     2.545    0.2328
   07/10/2005 18:55:00     28.800     2.909    0.2906
   07/10/2005 19:00:00     54.000     5.454    0.3587
   07/10/2005 19:05:00     21.600     2.182    0.5318
   07/10/2005 19:10:00     10.800     1.091    0.5394
   07/10/2005 19:15:00      2.400     0.242    0.4968
   07/10/2005 19:20:00      1.200     0.121    0.4266
   07/10/2005 19:25:00      0.000     0.000    0.3661
   07/10/2005 19:30:00      0.000     0.000    0.3131
   07/10/2005 19:35:00      1.200     0.121    0.2702
   07/10/2005 19:40:00      0.000     0.000    0.2392
   07/10/2005 19:45:00      0.000     0.000    0.2095
   07/10/2005 19:50:00      0.000     0.000    0.1847
   07/10/2005 19:55:00      1.200     0.121    0.1638
   07/10/2005 20:00:00      8.400     0.848    0.1495
   07/10/2005 20:05:00      7.200     0.727    0.1576
   07/10/2005 20:10:00      2.400     0.242    0.1613
   07/10/2005 20:15:00      1.200     0.121    0.1508
   07/10/2005 20:20:00      2.400     0.242    0.1383
   07/10/2005 20:25:00      3.600     0.364    0.1307
   07/10/2005 20:30:00      3.600     0.364    0.1272
   07/10/2005 20:35:00      2.400     0.242    0.1240
   07/10/2005 20:40:00      1.200     0.121    0.1181
   07/10/2005 20:45:00      1.200     0.121    0.1098
   07/10/2005 20:50:00      0.000     0.000    0.1026
   07/10/2005 20:55:00      1.200     0.121    0.0932
   07/10/2005 21:00:00      1.200     0.121    0.0878
   07/10/2005 21:05:00      1.200     0.121    0.0830
   07/10/2005 21:10:00      1.200     0.121    0.0787
   07/10/2005 21:15:00      0.000     0.000    0.0748
   07/10/2005 21:20:00      0.000     0.000    0.0688
   07/10/2005 21:25:00      0.000     0.000    0.0634
   07/10/2005 21:30:00      0.000     0.000    0.0586
   07/10/2005 21:35:00      0.000     0.000    0.0543
   07/10/2005 21:40:00      0.000     0.000    0.0504
   07/10/2005 21:45:00      0.000     0.000    0.0469
   07/10/2005 21:50:00      0.000     0.000    0.0437
   07/10/2005 21:55:00      0.000     0.000    0.0409
   07/10/2005 22:00:00      0.000     0.000    0.0382
   07/10/2005 22:05:00      0.000     0.000    0.0359
   07/10/2005 22:10:00      0.000     0.000    0.0337
  
  
  <<< Subcatchment S9 >>>
  ---------------------------------------------------
  Date        Time        Precip.    Losses    Runoff
                            mm/hr     mm/hr       CMS
  ---------------------------------------------------
   07/10/2005 17:15:00      1.200     0.654    0.0000
   07/10/2005 17:20:00      3.600     1.962    0.0000
   07/10/2005 17:25:00      7.200     3.924    0.0000
   07/10/2005 17:30:00     10.800     5.886    0.0015
   07/10/2005 17:35:00      6.000     3.270    0.0050
   07/10/2005 17:40:00      3.600     1.962    0.0094
   07/10/2005 17:45:00      2.400     1.308    0.0123
   07/10/2005 17:50:00      3.600     1.962    0.0141
   07/10/2005 17:55:00      3.600     1.962    0.0174
   07/10/2005 18:00:00      3.600     1.962    0.0208
   07/10/2005 18:05:00      8.400     4.578    0.0242
   07/10/2005 18:10:00     21.600    11.772    0.0350
   07/10/2005 18:15:00     12.000     6.540    0.0725
   07/10/2005 18:20:00     24.000    13.080    0.0914
   07/10/2005 18:25:00     24.000    13.080    0.1412
   07/10/2005 18:30:00      7.200     3.924    0.1912
   07/10/2005 18:35:00     18.000     9.810    0.1851
   07/10/2005 18:40:00      4.800     2.616    0.2134
   07/10/2005 18:45:00     10.800     5.886    0.1962
   07/10/2005 18:50:00     25.200    13.734    0.2004
   07/10/2005 18:55:00     28.800    15.696    0.2511
   07/10/2005 19:00:00     54.000    29.430    0.3101
   07/10/2005 19:05:00     21.600    11.772    0.4651
   07/10/2005 19:10:00     10.800     5.886    0.4617
   07/10/2005 19:15:00      2.400     1.308    0.4143
   07/10/2005 19:20:00      1.200     0.654    0.3453
   07/10/2005 19:25:00      0.000     0.000    0.2884
   07/10/2005 19:30:00      0.000     0.000    0.2405
   07/10/2005 19:35:00      1.200     0.654    0.2030
   07/10/2005 19:40:00      0.000     0.000    0.1768
   07/10/2005 19:45:00      0.000     0.000    0.1521
   07/10/2005 19:50:00      0.000     0.000    0.1320
   07/10/2005 19:55:00      1.200     0.654    0.1154
   07/10/2005 20:00:00      8.400     4.578    0.1045
   07/10/2005 20:05:00      7.200     3.924    0.1129
   07/10/2005 20:10:00      2.400     1.308    0.1174
   07/10/2005 20:15:00      1.200     0.654    0.1092
   07/10/2005 20:20:00      2.400     1.308    0.0992
   07/10/2005 20:25:00      3.600     1.962    0.0936
   07/10/2005 20:30:00      3.600     1.962    0.0915
   07/10/2005 20:35:00      2.400     1.308    0.0896
   07/10/2005 20:40:00      1.200     0.654    0.0852
   07/10/2005 20:45:00      1.200     0.654    0.0787
   07/10/2005 20:50:00      0.000     0.000    0.0731
   07/10/2005 20:55:00      1.200     0.654    0.0657
   07/10/2005 21:00:00      1.200     0.654    0.0617
   07/10/2005 21:05:00      1.200     0.654    0.0582
   07/10/2005 21:10:00      1.200     0.654    0.0551
   07/10/2005 21:15:00      0.000     0.000    0.0523
   07/10/2005 21:20:00      0.000     0.000    0.0476
   07/10/2005 21:25:00      0.000     0.000    0.0435
   07/10/2005 21:30:00      0.000     0.000    0.0399
   07/10/2005 21:35:00      0.000     0.000    0.0367
   07/10/2005 21:40:00      0.000     0.000    0.0338
   07/10/2005 21:45:00      0.000     0.000    0.0313
   07/10/2005 21:50:00      0.000     0.000    0.0290
   07/10/2005 21:55:00      0.000     0.000    0.0269
   07/10/2005 22:00:00      0.000     0.000    0.0250
   07/10/2005 22:05:00      0.000     0.000    0.0233
   07/10/2005 22:10:00      0.000     0.000    0.0218
  
  
  <<< Subcatchment S10 >>>
  ---------------------------------------------------
  Date        Time        Precip.    Losses    Runoff
                            mm/hr     mm/hr       CMS
  ---------------------------------------------------
   07/10/2005 17:15:00      1.200     0.572    0.0000
   07/10/2005 17:20:00      3.600     1.717    0.0000
   07/10/2005 17:25:00      7.200     3.434    0.0003
   07/10/2005 17:30:00     10.800     5.152    0.0013
   07/10/2005 17:35:00      6.000     2.862    0.0042
   07/10/2005 17:40:00      3.600     1.717    0.0073
   07/10/2005 17:45:00      2.400     1.145    0.0085
   07/10/2005 17:50:00      3.600     1.717    0.0086
   07/10/2005 17:55:00      3.600     1.717    0.0098
   07/10/2005 18:00:00      3.600     1.717    0.0108
   07/10/2005 18:05:00      8.400     4.007    0.0116
   07/10/2005 18:10:00     21.600    10.303    0.0171
   07/10/2005 18:15:00     12.000     5.724    0.0391
   07/10/2005 18:20:00     24.000    11.448    0.0422
   07/10/2005 18:25:00     24.000    11.448    0.0631
   07/10/2005 18:30:00      7.200     3.434    0.0770
   07/10/2005 18:35:00     18.000     8.586    0.0567
   07/10/2005 18:40:00      4.800     2.290    0.0627
   07/10/2005 18:45:00     10.800     5.152    0.0455
   07/10/2005 18:50:00     25.200    12.020    0.0445
   07/10/2005 18:55:00     28.800    13.738    0.0668
   07/10/2005 19:00:00     54.000    25.758    0.0879
   07/10/2005 19:05:00     21.600    10.303    0.1514
   07/10/2005 19:10:00     10.800     5.152    0.1177
   07/10/2005 19:15:00      2.400     1.145    0.0824
   07/10/2005 19:20:00      1.200     0.572    0.0519
   07/10/2005 19:25:00      0.000     0.000    0.0346
   07/10/2005 19:30:00      0.000     0.000    0.0234
   07/10/2005 19:35:00      1.200     0.572    0.0167
   07/10/2005 19:40:00      0.000     0.000    0.0136
   07/10/2005 19:45:00      0.000     0.000    0.0103
   07/10/2005 19:50:00      0.000     0.000    0.0081
   07/10/2005 19:55:00      1.200     0.572    0.0064
   07/10/2005 20:00:00      8.400     4.007    0.0061
   07/10/2005 20:05:00      7.200     3.434    0.0121
   07/10/2005 20:10:00      2.400     1.145    0.0163
   07/10/2005 20:15:00      1.200     0.572    0.0145
   07/10/2005 20:20:00      2.400     1.145    0.0121
   07/10/2005 20:25:00      3.600     1.717    0.0115
   07/10/2005 20:30:00      3.600     1.717    0.0122
   07/10/2005 20:35:00      2.400     1.145    0.0127
   07/10/2005 20:40:00      1.200     0.572    0.0119
   07/10/2005 20:45:00      1.200     0.572    0.0102
   07/10/2005 20:50:00      0.000     0.000    0.0090
   07/10/2005 20:55:00      1.200     0.572    0.0071
   07/10/2005 21:00:00      1.200     0.572    0.0067
   07/10/2005 21:05:00      1.200     0.572    0.0063
   07/10/2005 21:10:00      1.200     0.572    0.0060
   07/10/2005 21:15:00      0.000     0.000    0.0058
   07/10/2005 21:20:00      0.000     0.000    0.0047
   07/10/2005 21:25:00      0.000     0.000    0.0039
   07/10/2005 21:30:00      0.000     0.000    0.0033
   07/10/2005 21:35:00      0.000     0.000    0.0028
   07/10/2005 21:40:00      0.000     0.000    0.0024
   07/10/2005 21:45:00      0.000     0.000    0.0021
   07/10/2005 21:50:00      0.000     0.000    0.0018
   07/10/2005 21:55:00      0.000     0.000    0.0016
   07/10/2005 22:00:00      0.000     0.000    0.0014
   07/10/2005 22:05:00      0.000     0.000    0.0013
   07/10/2005 22:10:00      0.000     0.000    0.0011
  
  
  <<< Subcatchment S11 >>>
  ---------------------------------------------------
  Date        Time        Precip.    Losses    Runoff
                            mm/hr     mm/hr       CMS
  ---------------------------------------------------
   07/10/2005 17:15:00      1.200     0.587    0.0000
   07/10/2005 17:20:00      3.600     1.760    0.0000
   07/10/2005 17:25:00      7.200     3.521    0.0000
   07/10/2005 17:30:00     10.800     5.281    0.0024
   07/10/2005 17:35:00      6.000     2.934    0.0082
   07/10/2005 17:40:00      3.600     1.760    0.0146
   07/10/2005 17:45:00      2.400     1.174    0.0182
   07/10/2005 17:50:00      3.600     1.760    0.0196
   07/10/2005 17:55:00      3.600     1.760    0.0232
   07/10/2005 18:00:00      3.600     1.760    0.0265
   07/10/2005 18:05:00      8.400     4.108    0.0295
   07/10/2005 18:10:00     21.600    10.562    0.0429
   07/10/2005 18:15:00     12.000     5.868    0.0926
   07/10/2005 18:20:00     24.000    11.736    0.1082
   07/10/2005 18:25:00     24.000    11.736    0.1632
   07/10/2005 18:30:00      7.200     3.521    0.2082
   07/10/2005 18:35:00     18.000     8.802    0.1746
   07/10/2005 18:40:00      4.800     2.347    0.1929
   07/10/2005 18:45:00     10.800     5.281    0.1556
   07/10/2005 18:50:00     25.200    12.323    0.1519
   07/10/2005 18:55:00     28.800    14.083    0.2042
   07/10/2005 19:00:00     54.000    26.406    0.2597
   07/10/2005 19:05:00     21.600    10.562    0.4219
   07/10/2005 19:10:00     10.800     5.281    0.3702
   07/10/2005 19:15:00      2.400     1.174    0.2895
   07/10/2005 19:20:00      1.200     0.587    0.2064
   07/10/2005 19:25:00      0.000     0.000    0.1513
   07/10/2005 19:30:00      0.000     0.000    0.1118
   07/10/2005 19:35:00      1.200     0.587    0.0854
   07/10/2005 19:40:00      0.000     0.000    0.0702
   07/10/2005 19:45:00      0.000     0.000    0.0560
   07/10/2005 19:50:00      0.000     0.000    0.0455
   07/10/2005 19:55:00      1.200     0.587    0.0376
   07/10/2005 20:00:00      8.400     4.108    0.0340
   07/10/2005 20:05:00      7.200     3.521    0.0472
   07/10/2005 20:10:00      2.400     1.174    0.0562
   07/10/2005 20:15:00      1.200     0.587    0.0515
   07/10/2005 20:20:00      2.400     1.174    0.0449
   07/10/2005 20:25:00      3.600     1.760    0.0426
   07/10/2005 20:30:00      3.600     1.760    0.0434
   07/10/2005 20:35:00      2.400     1.174    0.0441
   07/10/2005 20:40:00      1.200     0.587    0.0419
   07/10/2005 20:45:00      1.200     0.587    0.0374
   07/10/2005 20:50:00      0.000     0.000    0.0339
   07/10/2005 20:55:00      1.200     0.587    0.0286
   07/10/2005 21:00:00      1.200     0.587    0.0266
   07/10/2005 21:05:00      1.200     0.587    0.0251
   07/10/2005 21:10:00      1.200     0.587    0.0237
   07/10/2005 21:15:00      0.000     0.000    0.0226
   07/10/2005 21:20:00      0.000     0.000    0.0195
   07/10/2005 21:25:00      0.000     0.000    0.0170
   07/10/2005 21:30:00      0.000     0.000    0.0149
   07/10/2005 21:35:00      0.000     0.000    0.0132
   07/10/2005 21:40:00      0.000     0.000    0.0117
   07/10/2005 21:45:00      0.000     0.000    0.0105
   07/10/2005 21:50:00      0.000     0.000    0.0094
   07/10/2005 21:55:00      0.000     0.000    0.0085
   07/10/2005 22:00:00      0.000     0.000    0.0077
   07/10/2005 22:05:00      0.000     0.000    0.0070
   07/10/2005 22:10:00      0.000     0.000    0.0064
  
  
  <<< Subcatchment S12 >>>
  ---------------------------------------------------
  Date        Time        Precip.    Losses    Runoff
                            mm/hr     mm/hr       CMS
  ---------------------------------------------------
   07/10/2005 17:15:00      1.200     0.270    0.0000
   07/10/2005 17:20:00      3.600     0.810    0.0000
   07/10/2005 17:25:00      7.200     1.620    0.0000
   07/10/2005 17:30:00     10.800     2.430    0.0015
   07/10/2005 17:35:00      6.000     1.350    0.0050
   07/10/2005 17:40:00      3.600     0.810    0.0094
   07/10/2005 17:45:00      2.400     0.540    0.0124
   07/10/2005 17:50:00      3.600     0.810    0.0143
   07/10/2005 17:55:00      3.600     0.810    0.0177
   07/10/2005 18:00:00      3.600     0.810    0.0212
   07/10/2005 18:05:00      8.400     1.890    0.0248
   07/10/2005 18:10:00     21.600     4.860    0.0358
   07/10/2005 18:15:00     12.000     2.700    0.0739
   07/10/2005 18:20:00     24.000     5.400    0.0936
   07/10/2005 18:25:00     24.000     5.400    0.1449
   07/10/2005 18:30:00      7.200     1.620    0.1971
   07/10/2005 18:35:00     18.000     4.050    0.1926
   07/10/2005 18:40:00      4.800     1.080    0.2230
   07/10/2005 18:45:00     10.800     2.430    0.2069
   07/10/2005 18:50:00     25.200     5.670    0.2124
   07/10/2005 18:55:00     28.800     6.480    0.2657
   07/10/2005 19:00:00     54.000    12.150    0.3280
   07/10/2005 19:05:00     21.600     4.860    0.4896
   07/10/2005 19:10:00     10.800     2.430    0.4901
   07/10/2005 19:15:00      2.400     0.540    0.4442
   07/10/2005 19:20:00      1.200     0.270    0.3745
   07/10/2005 19:25:00      0.000     0.000    0.3160
   07/10/2005 19:30:00      0.000     0.000    0.2661
   07/10/2005 19:35:00      1.200     0.270    0.2265
   07/10/2005 19:40:00      0.000     0.000    0.1984
   07/10/2005 19:45:00      0.000     0.000    0.1719
   07/10/2005 19:50:00      0.000     0.000    0.1500
   07/10/2005 19:55:00      1.200     0.270    0.1319
   07/10/2005 20:00:00      8.400     1.890    0.1198
   07/10/2005 20:05:00      7.200     1.620    0.1280
   07/10/2005 20:10:00      2.400     0.540    0.1323
   07/10/2005 20:15:00      1.200     0.270    0.1232
   07/10/2005 20:20:00      2.400     0.540    0.1124
   07/10/2005 20:25:00      3.600     0.810    0.1060
   07/10/2005 20:30:00      3.600     0.810    0.1034
   07/10/2005 20:35:00      2.400     0.540    0.1011
   07/10/2005 20:40:00      1.200     0.270    0.0962
   07/10/2005 20:45:00      1.200     0.270    0.0891
   07/10/2005 20:50:00      0.000     0.000    0.0829
   07/10/2005 20:55:00      1.200     0.270    0.0748
   07/10/2005 21:00:00      1.200     0.270    0.0704
   07/10/2005 21:05:00      1.200     0.270    0.0664
   07/10/2005 21:10:00      1.200     0.270    0.0629
   07/10/2005 21:15:00      0.000     0.000    0.0597
   07/10/2005 21:20:00      0.000     0.000    0.0546
   07/10/2005 21:25:00      0.000     0.000    0.0501
   07/10/2005 21:30:00      0.000     0.000    0.0460
   07/10/2005 21:35:00      0.000     0.000    0.0425
   07/10/2005 21:40:00      0.000     0.000    0.0392
   07/10/2005 21:45:00      0.000     0.000    0.0364
   07/10/2005 21:50:00      0.000     0.000    0.0338
   07/10/2005 21:55:00      0.000     0.000    0.0314
   07/10/2005 22:00:00      0.000     0.000    0.0293
   07/10/2005 22:05:00      0.000     0.000    0.0274
   07/10/2005 22:10:00      0.000     0.000    0.0256
  
  
  <<< Subcatchment S13 >>>
  ---------------------------------------------------
  Date        Time        Precip.    Losses    Runoff
                            mm/hr     mm/hr       CMS
  ---------------------------------------------------
   07/10/2005 17:15:00      1.200     0.254    0.0000
   07/10/2005 17:20:00      3.600     0.763    0.0000
   07/10/2005 17:25:00      7.200     1.526    0.0000
   07/10/2005 17:30:00     10.800     2.290    0.0018
   07/10/2005 17:35:00      6.000     1.272    0.0062
   07/10/2005 17:40:00      3.600     0.763    0.0116
   07/10/2005 17:45:00      2.400     0.509    0.0151
   07/10/2005 17:50:00      3.600     0.763    0.0172
   07/10/2005 17:55:00      3.600     0.763    0.0211
   07/10/2005 18:00:00      3.600     0.763    0.0251
   07/10/2005 18:05:00      8.400     1.781    0.0291
   07/10/2005 18:10:00     21.600     4.579    0.0420
   07/10/2005 18:15:00     12.000     2.544    0.0872
   07/10/2005 18:20:00     24.000     5.088    0.1091
   07/10/2005 18:25:00     24.000     5.088    0.1679
   07/10/2005 18:30:00      7.200     1.526    0.2256
   07/10/2005 18:35:00     18.000     3.816    0.2144
   07/10/2005 18:40:00      4.800     1.018    0.2453
   07/10/2005 18:45:00     10.800     2.290    0.2216
   07/10/2005 18:50:00     25.200     5.342    0.2244
   07/10/2005 18:55:00     28.800     6.106    0.2825
   07/10/2005 19:00:00     54.000    11.448    0.3495
   07/10/2005 19:05:00     21.600     4.579    0.5290
   07/10/2005 19:10:00     10.800     2.290    0.5171
   07/10/2005 19:15:00      2.400     0.509    0.4555
   07/10/2005 19:20:00      1.200     0.254    0.3716
   07/10/2005 19:25:00      0.000     0.000    0.3046
   07/10/2005 19:30:00      0.000     0.000    0.2496
   07/10/2005 19:35:00      1.200     0.254    0.2075
   07/10/2005 19:40:00      0.000     0.000    0.1788
   07/10/2005 19:45:00      0.000     0.000    0.1521
   07/10/2005 19:50:00      0.000     0.000    0.1306
   07/10/2005 19:55:00      1.200     0.254    0.1131
   07/10/2005 20:00:00      8.400     1.781    0.1020
   07/10/2005 20:05:00      7.200     1.526    0.1127
   07/10/2005 20:10:00      2.400     0.509    0.1187
   07/10/2005 20:15:00      1.200     0.254    0.1101
   07/10/2005 20:20:00      2.400     0.509    0.0996
   07/10/2005 20:25:00      3.600     0.763    0.0938
   07/10/2005 20:30:00      3.600     0.763    0.0921
   07/10/2005 20:35:00      2.400     0.509    0.0906
   07/10/2005 20:40:00      1.200     0.254    0.0861
   07/10/2005 20:45:00      1.200     0.254    0.0792
   07/10/2005 20:50:00      0.000     0.000    0.0733
   07/10/2005 20:55:00      1.200     0.254    0.0653
   07/10/2005 21:00:00      1.200     0.254    0.0613
   07/10/2005 21:05:00      1.200     0.254    0.0577
   07/10/2005 21:10:00      1.200     0.254    0.0546
   07/10/2005 21:15:00      0.000     0.000    0.0518
   07/10/2005 21:20:00      0.000     0.000    0.0469
   07/10/2005 21:25:00      0.000     0.000    0.0426
   07/10/2005 21:30:00      0.000     0.000    0.0388
   07/10/2005 21:35:00      0.000     0.000    0.0355
   07/10/2005 21:40:00      0.000     0.000    0.0326
   07/10/2005 21:45:00      0.000     0.000    0.0300
   07/10/2005 21:50:00      0.000     0.000    0.0276
   07/10/2005 21:55:00      0.000     0.000    0.0256
   07/10/2005 22:00:00      0.000     0.000    0.0237
   07/10/2005 22:05:00      0.000     0.000    0.0220
   07/10/2005 22:10:00      0.000     0.000    0.0205
  
  
  <<< Subcatchment S14 >>>
  ---------------------------------------------------
  Date        Time        Precip.    Losses    Runoff
                            mm/hr     mm/hr       CMS
  ---------------------------------------------------
   07/10/2005 17:15:00      1.200     0.506    0.0000
   07/10/2005 17:20:00      3.600     1.519    0.0000
   07/10/2005 17:25:00      7.200     3.038    0.0000
   07/10/2005 17:30:00     10.800     4.558    0.0015
   07/10/2005 17:35:00      6.000     2.532    0.0050
   07/10/2005 17:40:00      3.600     1.519    0.0093
   07/10/2005 17:45:00      2.400     1.013    0.0122
   07/10/2005 17:50:00      3.600     1.519    0.0139
   07/10/2005 17:55:00      3.600     1.519    0.0171
   07/10/2005 18:00:00      3.600     1.519    0.0203
   07/10/2005 18:05:00      8.400     3.545    0.0236
   07/10/2005 18:10:00     21.600     9.115    0.0340
   07/10/2005 18:15:00     12.000     5.064    0.0706
   07/10/2005 18:20:00     24.000    10.128    0.0885
   07/10/2005 18:25:00     24.000    10.128    0.1364
   07/10/2005 18:30:00      7.200     3.038    0.1837
   07/10/2005 18:35:00     18.000     7.596    0.1756
   07/10/2005 18:40:00      4.800     2.026    0.2014
   07/10/2005 18:45:00     10.800     4.558    0.1829
   07/10/2005 18:50:00     25.200    10.634    0.1857
   07/10/2005 18:55:00     28.800    12.154    0.2334
   07/10/2005 19:00:00     54.000    22.788    0.2885
   07/10/2005 19:05:00     21.600     9.115    0.4355
   07/10/2005 19:10:00     10.800     4.558    0.4277
   07/10/2005 19:15:00      2.400     1.013    0.3788
   07/10/2005 19:20:00      1.200     0.506    0.3111
   07/10/2005 19:25:00      0.000     0.000    0.2565
   07/10/2005 19:30:00      0.000     0.000    0.2113
   07/10/2005 19:35:00      1.200     0.506    0.1765
   07/10/2005 19:40:00      0.000     0.000    0.1525
   07/10/2005 19:45:00      0.000     0.000    0.1301
   07/10/2005 19:50:00      0.000     0.000    0.1121
   07/10/2005 19:55:00      1.200     0.506    0.0974
   07/10/2005 20:00:00      8.400     3.545    0.0880
   07/10/2005 20:05:00      7.200     3.038    0.0964
   07/10/2005 20:10:00      2.400     1.013    0.1012
   07/10/2005 20:15:00      1.200     0.506    0.0939
   07/10/2005 20:20:00      2.400     1.013    0.0850
   07/10/2005 20:25:00      3.600     1.519    0.0802
   07/10/2005 20:30:00      3.600     1.519    0.0786
   07/10/2005 20:35:00      2.400     1.013    0.0772
   07/10/2005 20:40:00      1.200     0.506    0.0734
   07/10/2005 20:45:00      1.200     0.506    0.0676
   07/10/2005 20:50:00      0.000     0.000    0.0626
   07/10/2005 20:55:00      1.200     0.506    0.0559
   07/10/2005 21:00:00      1.200     0.506    0.0525
   07/10/2005 21:05:00      1.200     0.506    0.0495
   07/10/2005 21:10:00      1.200     0.506    0.0468
   07/10/2005 21:15:00      0.000     0.000    0.0444
   07/10/2005 21:20:00      0.000     0.000    0.0403
   07/10/2005 21:25:00      0.000     0.000    0.0366
   07/10/2005 21:30:00      0.000     0.000    0.0335
   07/10/2005 21:35:00      0.000     0.000    0.0306
   07/10/2005 21:40:00      0.000     0.000    0.0282
   07/10/2005 21:45:00      0.000     0.000    0.0259
   07/10/2005 21:50:00      0.000     0.000    0.0240
   07/10/2005 21:55:00      0.000     0.000    0.0222
   07/10/2005 22:00:00      0.000     0.000    0.0206
   07/10/2005 22:05:00      0.000     0.000    0.0192
   07/10/2005 22:10:00      0.000     0.000    0.0178
  
  
  <<< Subcatchment S15 >>>
  ---------------------------------------------------
  Date        Time        Precip.    Losses    Runoff
                            mm/hr     mm/hr       CMS
  ---------------------------------------------------
   07/10/2005 17:15:00      1.200     0.402    0.0000
   07/10/2005 17:20:00      3.600     1.206    0.0000
   07/10/2005 17:25:00      7.200     2.412    0.0000
   07/10/2005 17:30:00     10.800     3.618    0.0014
   07/10/2005 17:35:00      6.000     2.010    0.0050
   07/10/2005 17:40:00      3.600     1.206    0.0092
   07/10/2005 17:45:00      2.400     0.804    0.0120
   07/10/2005 17:50:00      3.600     1.206    0.0136
   07/10/2005 17:55:00      3.600     1.206    0.0167
   07/10/2005 18:00:00      3.600     1.206    0.0198
   07/10/2005 18:05:00      8.400     2.814    0.0228
   07/10/2005 18:10:00     21.600     7.236    0.0330
   07/10/2005 18:15:00     12.000     4.020    0.0686
   07/10/2005 18:20:00     24.000     8.040    0.0854
   07/10/2005 18:25:00     24.000     8.040    0.1313
   07/10/2005 18:30:00      7.200     2.412    0.1757
   07/10/2005 18:35:00     18.000     6.030    0.1657
   07/10/2005 18:40:00      4.800     1.608    0.1889
   07/10/2005 18:45:00     10.800     3.618    0.1694
   07/10/2005 18:50:00     25.200     8.442    0.1709
   07/10/2005 18:55:00     28.800     9.648    0.2156
   07/10/2005 19:00:00     54.000    18.090    0.2670
   07/10/2005 19:05:00     21.600     7.236    0.4060
   07/10/2005 19:10:00     10.800     3.618    0.3941
   07/10/2005 19:15:00      2.400     0.804    0.3443
   07/10/2005 19:20:00      1.200     0.402    0.2782
   07/10/2005 19:25:00      0.000     0.000    0.2262
   07/10/2005 19:30:00      0.000     0.000    0.1840
   07/10/2005 19:35:00      1.200     0.402    0.1520
   07/10/2005 19:40:00      0.000     0.000    0.1304
   07/10/2005 19:45:00      0.000     0.000    0.1103
   07/10/2005 19:50:00      0.000     0.000    0.0943
   07/10/2005 19:55:00      1.200     0.402    0.0814
   07/10/2005 20:00:00      8.400     2.814    0.0733
   07/10/2005 20:05:00      7.200     2.412    0.0818
   07/10/2005 20:10:00      2.400     0.804    0.0868
   07/10/2005 20:15:00      1.200     0.402    0.0804
   07/10/2005 20:20:00      2.400     0.804    0.0725
   07/10/2005 20:25:00      3.600     1.206    0.0684
   07/10/2005 20:30:00      3.600     1.206    0.0672
   07/10/2005 20:35:00      2.400     0.804    0.0662
   07/10/2005 20:40:00      1.200     0.402    0.0630
   07/10/2005 20:45:00      1.200     0.402    0.0578
   07/10/2005 20:50:00      0.000     0.000    0.0534
   07/10/2005 20:55:00      1.200     0.402    0.0475
   07/10/2005 21:00:00      1.200     0.402    0.0445
   07/10/2005 21:05:00      1.200     0.402    0.0419
   07/10/2005 21:10:00      1.200     0.402    0.0396
   07/10/2005 21:15:00      0.000     0.000    0.0376
   07/10/2005 21:20:00      0.000     0.000    0.0339
   07/10/2005 21:25:00      0.000     0.000    0.0307
   07/10/2005 21:30:00      0.000     0.000    0.0279
   07/10/2005 21:35:00      0.000     0.000    0.0255
   07/10/2005 21:40:00      0.000     0.000    0.0233
   07/10/2005 21:45:00      0.000     0.000    0.0214
   07/10/2005 21:50:00      0.000     0.000    0.0197
   07/10/2005 21:55:00      0.000     0.000    0.0182
   07/10/2005 22:00:00      0.000     0.000    0.0168
   07/10/2005 22:05:00      0.000     0.000    0.0156
   07/10/2005 22:10:00      0.000     0.000    0.0145
  
  
  ************
  Node Results
  ************
  
  <<< Node J0 >>>
  ----------------------------------------------------------------
                           Inflow  Flooding     Depth      Head
  Date        Time            CMS       CMS    meters    meters
  ----------------------------------------------------------------
   07/10/2005 17:15:00      0.000     0.000     0.011    31.001
   07/10/2005 17:20:00      0.000     0.000     0.006    30.996
   07/10/2005 17:25:00      0.000     0.000     0.005    30.995
   07/10/2005 17:30:00      0.001     0.000     0.012    31.002
   07/10/2005 17:35:00      0.005     0.000     0.024    31.014
   07/10/2005 17:40:00      0.009     0.000     0.035    31.025
   07/10/2005 17:45:00      0.012     0.000     0.040    31.030
[...]
   07/10/2005 17:55:00      0.034     0.801     0.070     0.006
   07/10/2005 18:00:00      0.045     0.858     0.080     0.007
   07/10/2005 18:05:00      0.055     0.907     0.089     0.009
   07/10/2005 18:10:00      0.067     0.955     0.098     0.010
   07/10/2005 18:15:00      0.095     1.053     0.116     0.013
   07/10/2005 18:20:00      0.172     1.265     0.152     0.019
   07/10/2005 18:25:00      0.261     1.434     0.186     0.026
   07/10/2005 18:30:00      0.391     1.616     0.225     0.034
   07/10/2005 18:35:00      0.500     1.752     0.252     0.040
   07/10/2005 18:40:00      0.510     1.740     0.257     0.041
   07/10/2005 18:45:00      0.524     1.755     0.260     0.042
   07/10/2005 18:50:00      0.491     1.711     0.253     0.041
   07/10/2005 18:55:00      0.506     1.719     0.257     0.042
   07/10/2005 19:00:00      0.621     1.835     0.283     0.048
   07/10/2005 19:05:00      0.845     2.001     0.329     0.060
   07/10/2005 19:10:00      1.141     2.229     0.376     0.072
   07/10/2005 19:15:00      1.083     2.176     0.369     0.070
   07/10/2005 19:20:00      0.919     2.061     0.341     0.063
   07/10/2005 19:25:00      0.737     1.920     0.308     0.054
   07/10/2005 19:30:00      0.594     1.792     0.279     0.047
   07/10/2005 19:35:00      0.481     1.678     0.253     0.041
   07/10/2005 19:40:00      0.400     1.585     0.232     0.036
   07/10/2005 19:45:00      0.338     1.501     0.214     0.032
   07/10/2005 19:50:00      0.287     1.427     0.199     0.028
   07/10/2005 19:55:00      0.246     1.363     0.185     0.026
   07/10/2005 20:00:00      0.215     1.307     0.173     0.023
   07/10/2005 20:05:00      0.197     1.265     0.167     0.022
   07/10/2005 20:10:00      0.204     1.286     0.169     0.022
   07/10/2005 20:15:00      0.217     1.322     0.173     0.023
   07/10/2005 20:20:00      0.214     1.317     0.172     0.023
   07/10/2005 20:25:00      0.199     1.285     0.166     0.022
   07/10/2005 20:30:00      0.187     1.257     0.161     0.021
   07/10/2005 20:35:00      0.180     1.245     0.159     0.021
   07/10/2005 20:40:00      0.177     1.239     0.157     0.020
   07/10/2005 20:45:00      0.170     1.225     0.154     0.020
   07/10/2005 20:50:00      0.159     1.199     0.149     0.019
   07/10/2005 20:55:00      0.146     1.168     0.144     0.018
   07/10/2005 21:00:00      0.133     1.132     0.137     0.017
   07/10/2005 21:05:00      0.122     1.103     0.132     0.016
   07/10/2005 21:10:00      0.114     1.080     0.128     0.015
   07/10/2005 21:15:00      0.107     1.062     0.125     0.014
   07/10/2005 21:20:00      0.101     1.047     0.121     0.014
   07/10/2005 21:25:00      0.094     1.023     0.117     0.013
   07/10/2005 21:30:00      0.086     0.992     0.113     0.012
   07/10/2005 21:35:00      0.078     0.962     0.108     0.011
   07/10/2005 21:40:00      0.071     0.934     0.103     0.011
   07/10/2005 21:45:00      0.065     0.907     0.099     0.010
   07/10/2005 21:50:00      0.059     0.882     0.095     0.009
   07/10/2005 21:55:00      0.054     0.859     0.091     0.009
   07/10/2005 22:00:00      0.050     0.838     0.088     0.008
   07/10/2005 22:05:00      0.046     0.817     0.085     0.008
   07/10/2005 22:10:00      0.043     0.798     0.082     0.008
  
  
  <<< Link C21 >>>
  ----------------------------------------------------------------
                             Flow  Velocity     Depth  Capacity/
  Date        Time            CMS     m/sec    meters   Setting 
  ----------------------------------------------------------------
   07/10/2005 17:15:00      0.000     0.000     0.000     0.000
   07/10/2005 17:20:00      0.000     0.000     0.001     0.000
   07/10/2005 17:25:00      0.000     0.398     0.004     0.001
   07/10/2005 17:30:00      0.001     0.607     0.010     0.002
   07/10/2005 17:35:00      0.003     0.928     0.020     0.005
   07/10/2005 17:40:00      0.008     1.050     0.032     0.010
   07/10/2005 17:45:00      0.011     0.961     0.043     0.015
   07/10/2005 17:50:00      0.013     0.833     0.052     0.020
   07/10/2005 17:55:00      0.016     0.819     0.060     0.025
   07/10/2005 18:00:00      0.019     0.833     0.067     0.029
   07/10/2005 18:05:00      0.022     0.856     0.073     0.033
   07/10/2005 18:10:00      0.030     1.002     0.082     0.039
   07/10/2005 18:15:00      0.061     1.399     0.104     0.055
   07/10/2005 18:20:00      0.082     1.381     0.129     0.076
   07/10/2005 18:25:00      0.122     1.546     0.157     0.101
   07/10/2005 18:30:00      0.168     1.658     0.186     0.129
   07/10/2005 18:35:00      0.168     1.515     0.198     0.141
   07/10/2005 18:40:00      0.185     1.614     0.203     0.146
   07/10/2005 18:45:00      0.173     1.525     0.202     0.144
   07/10/2005 18:50:00      0.171     1.550     0.198     0.140
   07/10/2005 18:55:00      0.208     1.762     0.208     0.151
   07/10/2005 19:00:00      0.259     1.892     0.230     0.174
   07/10/2005 19:05:00      0.386     2.209     0.274     0.222
   07/10/2005 19:10:00      0.396     2.022     0.297     0.249
   07/10/2005 19:15:00      0.352     1.901     0.285     0.235
   07/10/2005 19:20:00      0.288     1.764     0.261     0.208
   07/10/2005 19:25:00      0.235     1.662     0.236     0.180
   07/10/2005 19:30:00      0.191     1.567     0.213     0.155
   07/10/2005 19:35:00      0.158     1.482     0.193     0.136
   07/10/2005 19:40:00      0.135     1.427     0.178     0.120
   07/10/2005 19:45:00      0.114     1.358     0.164     0.107
   07/10/2005 19:50:00      0.098     1.295     0.152     0.096
   07/10/2005 19:55:00      0.084     1.238     0.142     0.087
   07/10/2005 20:00:00      0.075     1.206     0.133     0.079
   07/10/2005 20:05:00      0.080     1.305     0.132     0.078
   07/10/2005 20:10:00      0.086     1.351     0.135     0.081
   07/10/2005 20:15:00      0.082     1.274     0.136     0.082
   07/10/2005 20:20:00      0.074     1.197     0.133     0.079
   07/10/2005 20:25:00      0.069     1.173     0.128     0.075
   07/10/2005 20:30:00      0.067     1.182     0.125     0.073
   07/10/2005 20:35:00      0.066     1.186     0.124     0.071
   07/10/2005 20:40:00      0.064     1.161     0.122     0.070
   07/10/2005 20:45:00      0.059     1.117     0.119     0.067
   07/10/2005 20:50:00      0.054     1.081     0.115     0.064
   07/10/2005 20:55:00      0.049     1.033     0.110     0.060
   07/10/2005 21:00:00      0.045     1.016     0.106     0.057
   07/10/2005 21:05:00      0.043     1.007     0.102     0.054
   07/10/2005 21:10:00      0.040     0.994     0.099     0.051
   07/10/2005 21:15:00      0.038     0.978     0.097     0.050
   07/10/2005 21:20:00      0.035     0.939     0.093     0.047
   07/10/2005 21:25:00      0.032     0.901     0.090     0.045
   07/10/2005 21:30:00      0.029     0.873     0.086     0.042
   07/10/2005 21:35:00      0.026     0.851     0.082     0.039
   07/10/2005 21:40:00      0.024     0.832     0.079     0.037
   07/10/2005 21:45:00      0.022     0.811     0.076     0.035
   07/10/2005 21:50:00      0.020     0.791     0.073     0.033
   07/10/2005 21:55:00      0.019     0.772     0.070     0.031
   07/10/2005 22:00:00      0.017     0.755     0.067     0.029
   07/10/2005 22:05:00      0.016     0.739     0.065     0.028
   07/10/2005 22:10:00      0.015     0.724     0.063     0.026
  
  
  <<< Link C23 >>>
  ----------------------------------------------------------------
                             Flow  Velocity     Depth  Capacity/
  Date        Time            CMS     m/sec    meters   Setting 
  ----------------------------------------------------------------
   07/10/2005 17:15:00      0.068     1.002     0.090     0.007
   07/10/2005 17:20:00      0.059     1.002     0.082     0.006
   07/10/2005 17:25:00      0.044     0.984     0.069     0.004
   07/10/2005 17:30:00      0.033     0.937     0.057     0.003
   07/10/2005 17:35:00      0.025     0.887     0.049     0.003
   07/10/2005 17:40:00      0.022     0.867     0.046     0.003
   07/10/2005 17:45:00      0.028     0.903     0.052     0.003
   07/10/2005 17:50:00      0.049     0.988     0.073     0.005
   07/10/2005 17:55:00      0.091     1.005     0.109     0.009
   07/10/2005 18:00:00      0.141     1.039     0.144     0.013
   07/10/2005 18:05:00      0.189     1.128     0.164     0.016
   07/10/2005 18:10:00      0.236     1.207     0.182     0.019
   07/10/2005 18:15:00      0.308     1.310     0.207     0.023
   07/10/2005 18:20:00      0.510     1.514     0.264     0.033
   07/10/2005 18:25:00      0.869     1.792     0.338     0.048
   07/10/2005 18:30:00      1.359     2.043     0.420     0.065
   07/10/2005 18:35:00      1.936     2.285     0.496     0.083
   07/10/2005 18:40:00      2.150     2.382     0.518     0.089
   07/10/2005 18:45:00      2.229     2.408     0.527     0.091
   07/10/2005 18:50:00      2.161     2.388     0.519     0.089
   07/10/2005 18:55:00      2.123     2.372     0.515     0.088
   07/10/2005 19:00:00      2.454     2.454     0.556     0.098
   07/10/2005 19:05:00      3.211     2.641     0.637     0.119
   07/10/2005 19:10:00      4.580     2.942     0.757     0.153
   07/10/2005 19:15:00      4.809     3.020     0.769     0.156
   07/10/2005 19:20:00      4.223     2.909     0.721     0.143
   07/10/2005 19:25:00      3.481     2.749     0.655     0.124
   07/10/2005 19:30:00      2.834     2.587     0.592     0.108
   07/10/2005 19:35:00      2.324     2.439     0.538     0.094
   07/10/2005 19:40:00      1.930     2.306     0.492     0.082
   07/10/2005 19:45:00      1.639     2.198     0.454     0.073
   07/10/2005 19:50:00      1.407     2.101     0.422     0.066
   07/10/2005 19:55:00      1.211     2.000     0.393     0.059
   07/10/2005 20:00:00      1.052     1.929     0.367     0.054
   07/10/2005 20:05:00      0.945     1.876     0.347     0.049
   07/10/2005 20:10:00      0.923     1.855     0.344     0.049
   07/10/2005 20:15:00      0.966     1.880     0.352     0.050
   07/10/2005 20:20:00      0.979     1.891     0.354     0.051
   07/10/2005 20:25:00      0.933     1.867     0.345     0.049
   07/10/2005 20:30:00      0.874     1.828     0.335     0.047
   07/10/2005 20:35:00      0.833     1.799     0.328     0.045
   07/10/2005 20:40:00      0.811     1.783     0.324     0.045
   07/10/2005 20:45:00      0.786     1.766     0.319     0.044
   07/10/2005 20:50:00      0.744     1.733     0.312     0.042
   07/10/2005 20:55:00      0.694     1.692     0.302     0.040
   07/10/2005 21:00:00      0.637     1.653     0.290     0.038
   07/10/2005 21:05:00      0.587     1.610     0.279     0.036
   07/10/2005 21:10:00      0.545     1.572     0.269     0.034
   07/10/2005 21:15:00      0.511     1.540     0.261     0.033
   07/10/2005 21:20:00      0.482     1.513     0.254     0.031
   07/10/2005 21:25:00      0.451     1.482     0.246     0.030
   07/10/2005 21:30:00      0.417     1.448     0.237     0.028
   07/10/2005 21:35:00      0.382     1.411     0.228     0.027
   07/10/2005 21:40:00      0.349     1.377     0.219     0.025
   07/10/2005 21:45:00      0.321     1.340     0.210     0.024
   07/10/2005 21:50:00      0.295     1.303     0.202     0.022
   07/10/2005 21:55:00      0.272     1.268     0.194     0.021
   07/10/2005 22:00:00      0.251     1.235     0.187     0.020
   07/10/2005 22:05:00      0.232     1.206     0.180     0.019
   07/10/2005 22:10:00      0.215     1.178     0.174     0.018
  
  
  <<< Link C24 >>>
  ----------------------------------------------------------------
                             Flow  Velocity     Depth  Capacity/
  Date        Time            CMS     m/sec    meters   Setting 
  ----------------------------------------------------------------
   07/10/2005 17:15:00      0.000     0.000     0.000     0.000
   07/10/2005 17:20:00      0.000     0.000     0.001     0.000
   07/10/2005 17:25:00      0.000     0.180     0.004     0.001
   07/10/2005 17:30:00      0.001     0.382     0.010     0.002
   07/10/2005 17:35:00      0.003     0.588     0.022     0.005
   07/10/2005 17:40:00      0.007     0.701     0.038     0.011
   07/10/2005 17:45:00      0.011     0.717     0.050     0.016
   07/10/2005 17:50:00      0.013     0.712     0.056     0.020
   07/10/2005 17:55:00      0.016     0.745     0.062     0.022
   07/10/2005 18:00:00      0.019     0.797     0.067     0.025
   07/10/2005 18:05:00      0.022     0.837     0.072     0.028
   07/10/2005 18:10:00      0.030     0.939     0.082     0.034
   07/10/2005 18:15:00      0.059     1.193     0.110     0.052
   07/10/2005 18:20:00      0.084     1.275     0.133     0.069
   07/10/2005 18:25:00      0.123     1.453     0.159     0.089
   07/10/2005 18:30:00      0.172     1.607     0.187     0.113
   07/10/2005 18:35:00      0.178     1.605     0.191     0.116
   07/10/2005 18:40:00      0.195     1.693     0.197     0.121
   07/10/2005 18:45:00      0.187     1.668     0.193     0.118
   07/10/2005 18:50:00      0.185     1.689     0.190     0.115
   07/10/2005 18:55:00      0.223     1.810     0.206     0.129
   07/10/2005 19:00:00      0.277     1.919     0.230     0.152
   07/10/2005 19:05:00      0.407     2.156     0.278     0.199
   07/10/2005 19:10:00      0.429     2.157     0.289     0.209
   07/10/2005 19:15:00      0.388     2.113     0.273     0.193
   07/10/2005 19:20:00      0.325     2.026     0.248     0.169
   07/10/2005 19:25:00      0.268     1.935     0.224     0.146
   07/10/2005 19:30:00      0.221     1.839     0.203     0.127
   07/10/2005 19:35:00      0.185     1.755     0.185     0.111
   07/10/2005 19:40:00      0.158     1.686     0.171     0.099
   07/10/2005 19:45:00      0.136     1.613     0.158     0.089
   07/10/2005 19:50:00      0.117     1.541     0.147     0.080
   07/10/2005 19:55:00      0.101     1.478     0.137     0.072
   07/10/2005 20:00:00      0.091     1.432     0.130     0.067
   07/10/2005 20:05:00      0.094     1.463     0.131     0.067
   07/10/2005 20:10:00      0.100     1.475     0.136     0.071
   07/10/2005 20:15:00      0.096     1.429     0.136     0.071
   07/10/2005 20:20:00      0.088     1.381     0.130     0.067
   07/10/2005 20:25:00      0.082     1.354     0.126     0.063
   07/10/2005 20:30:00      0.079     1.345     0.123     0.062
   07/10/2005 20:35:00      0.078     1.335     0.123     0.061
   07/10/2005 20:40:00      0.075     1.313     0.121     0.060
   07/10/2005 20:45:00      0.069     1.280     0.117     0.057
   07/10/2005 20:50:00      0.064     1.251     0.113     0.054
   07/10/2005 20:55:00      0.058     1.214     0.107     0.050
   07/10/2005 21:00:00      0.054     1.189     0.103     0.047
   07/10/2005 21:05:00      0.050     1.171     0.100     0.045
   07/10/2005 21:10:00      0.048     1.152     0.097     0.044
   07/10/2005 21:15:00      0.045     1.134     0.095     0.042
   07/10/2005 21:20:00      0.042     1.104     0.092     0.040
   07/10/2005 21:25:00      0.038     1.074     0.088     0.037
   07/10/2005 21:30:00      0.035     1.044     0.084     0.035
   07/10/2005 21:35:00      0.032     1.016     0.080     0.033
   07/10/2005 21:40:00      0.029     0.990     0.077     0.031
   07/10/2005 21:45:00      0.027     0.967     0.074     0.029
   07/10/2005 21:50:00      0.025     0.946     0.071     0.027
   07/10/2005 21:55:00      0.023     0.928     0.069     0.026
   07/10/2005 22:00:00      0.021     0.912     0.066     0.024
   07/10/2005 22:05:00      0.020     0.892     0.064     0.023
   07/10/2005 22:10:00      0.018     0.873     0.061     0.022
  
  
  <<< Link C22 >>>
  ----------------------------------------------------------------
                             Flow  Velocity     Depth  Capacity/
  Date        Time            CMS     m/sec    meters   Setting 
  ----------------------------------------------------------------
   07/10/2005 17:15:00      0.000     0.000     0.036     0.007
   07/10/2005 17:20:00      0.000     0.000     0.029     0.005
   07/10/2005 17:25:00      0.000     0.007     0.024     0.004
   07/10/2005 17:30:00      0.000     0.067     0.023     0.003
   07/10/2005 17:35:00      0.002     0.310     0.026     0.004
   07/10/2005 17:40:00      0.006     0.633     0.034     0.006
   07/10/2005 17:45:00      0.010     0.754     0.043     0.009
   07/10/2005 17:50:00      0.013     0.753     0.051     0.012
   07/10/2005 17:55:00      0.016     0.723     0.058     0.014
   07/10/2005 18:00:00      0.019     0.739     0.065     0.017
   07/10/2005 18:05:00      0.023     0.766     0.071     0.019
   07/10/2005 18:10:00      0.030     0.872     0.080     0.023
   07/10/2005 18:15:00      0.059     1.174     0.101     0.032
   07/10/2005 18:20:00      0.085     1.245     0.126     0.045
   07/10/2005 18:25:00      0.126     1.378     0.153     0.059
   07/10/2005 18:30:00      0.177     1.497     0.183     0.077
   07/10/2005 18:35:00      0.187     1.425     0.196     0.085
   07/10/2005 18:40:00      0.206     1.501     0.202     0.089
   07/10/2005 18:45:00      0.201     1.469     0.202     0.089
   07/10/2005 18:50:00      0.199     1.495     0.198     0.087
   07/10/2005 18:55:00      0.238     1.665     0.208     0.093
   07/10/2005 19:00:00      0.296     1.791     0.230     0.107
   07/10/2005 19:05:00      0.431     2.050     0.272     0.137
   07/10/2005 19:10:00      0.462     1.947     0.296     0.154
   07/10/2005 19:15:00      0.425     1.870     0.287     0.147
   07/10/2005 19:20:00      0.361     1.787     0.264     0.131
   07/10/2005 19:25:00      0.302     1.720     0.240     0.114
   07/10/2005 19:30:00      0.252     1.651     0.218     0.099
   07/10/2005 19:35:00      0.213     1.596     0.199     0.087
   07/10/2005 19:40:00      0.184     1.549     0.183     0.077
   07/10/2005 19:45:00      0.159     1.495     0.170     0.069
   07/10/2005 19:50:00      0.138     1.441     0.158     0.062
   07/10/2005 19:55:00      0.120     1.395     0.147     0.056
   07/10/2005 20:00:00      0.108     1.368     0.138     0.051
   07/10/2005 20:05:00      0.110     1.422     0.137     0.050
   07/10/2005 20:10:00      0.116     1.454     0.140     0.052
   07/10/2005 20:15:00      0.112     1.396     0.140     0.052
   07/10/2005 20:20:00      0.102     1.323     0.137     0.050
   07/10/2005 20:25:00      0.095     1.289     0.132     0.048
   07/10/2005 20:30:00      0.092     1.285     0.130     0.047
   07/10/2005 20:35:00      0.090     1.282     0.128     0.046
   07/10/2005 20:40:00      0.087     1.258     0.126     0.045
   07/10/2005 20:45:00      0.081     1.218     0.123     0.043
   07/10/2005 20:50:00      0.075     1.184     0.119     0.041
   07/10/2005 20:55:00      0.068     1.149     0.114     0.039
   07/10/2005 21:00:00      0.063     1.127     0.110     0.036
   07/10/2005 21:05:00      0.059     1.114     0.106     0.035
   07/10/2005 21:10:00      0.056     1.099     0.103     0.033
   07/10/2005 21:15:00      0.053     1.084     0.100     0.032
   07/10/2005 21:20:00      0.049     1.053     0.097     0.030
   07/10/2005 21:25:00      0.045     1.019     0.093     0.029
   07/10/2005 21:30:00      0.041     0.993     0.090     0.027
   07/10/2005 21:35:00      0.038     0.976     0.086     0.025
   07/10/2005 21:40:00      0.035     0.957     0.082     0.024
   07/10/2005 21:45:00      0.032     0.935     0.079     0.022
   07/10/2005 21:50:00      0.030     0.915     0.076     0.021
   07/10/2005 21:55:00      0.028     0.896     0.073     0.020
   07/10/2005 22:00:00      0.026     0.878     0.071     0.019
   07/10/2005 22:05:00      0.024     0.861     0.068     0.018
   07/10/2005 22:10:00      0.022     0.845     0.066     0.017
  

  Analysis begun on:  Wed Mar 27 11:19:37 2019
  Analysis ended on:  Wed Mar 27 11:19:37 2019
  Total elapsed time: < 1 sec