
  EPA STORM WATER MANAGEMENT MODEL - VERSION 5.1 (Build 5.1.012)
  --------------------------------------------------------------

  
  *************
  Element Count
  *************
  Number of rain gages ...... 1
  Number of subcatchments ... 15
  Number of nodes ........... 25
  Number of links ........... 24
  Number of pollutants ...... 0
  Number of land uses ....... 0
  
  
  ****************
  Raingage Summary
  ****************
                                                      Data       Recording
  Name                 Data Source                    Type       Interval 
  ------------------------------------------------------------------------
  1                    20050710                       VOLUME       5 min.
  
  
  ********************
  Subcatchment Summary
  ********************
  Name                       Area     Width   %Imperv    %Slope Rain Gage            Outlet              
  -----------------------------------------------------------------------------------------------------------
  S1                         2.21    400.00     96.80    0.0500 1                    J1                  
  S2                         7.25    400.00     63.50    0.0500 1                    J0                  
  S3                         1.53    400.00     42.80    0.0500 1                    J4                  
  S4                         6.18    400.00     37.40    0.0500 1                    J8                  
  S5                         9.28    400.00     37.30    0.0500 1                    J7                  
  S6                         6.98    400.00     72.50    0.0500 1                    J5                  
  S7                         3.28    400.00     58.60    0.0500 1                    J25                 
  S8                        10.68    400.00     89.90    0.0500 1                    J11                 
  S9                        16.43    400.00     45.50    0.0500 1                    J14                 
  S10                        2.73    400.00     52.30    0.0500 1                    J9                  
  S11                        9.27    700.00     51.10    0.0500 1                    J10                 
  S12                       10.58    400.00     77.50    0.0500 1                    J17                 
  S13                       10.08    500.00     78.80    0.0500 1                    J24                 
  S14                       11.53    400.00     57.80    0.0500 1                    J15                 
  S15                        8.92    400.00     66.50    0.0500 1                    J23                 
  
  
  ************
  Node Summary
  ************
                                           Invert      Max.    Ponded    External
  Name                 Type                 Elev.     Depth      Area    Inflow  
  -------------------------------------------------------------------------------
  J0                   JUNCTION             30.99      4.00       0.0
  J1                   JUNCTION             28.99      4.00       0.0
  J2                   JUNCTION             25.99      4.00       0.0
  J3                   JUNCTION             30.99      4.00       0.0
  J4                   JUNCTION             33.99      4.00       0.0
  J5                   JUNCTION             28.99      4.00       0.0
  J6                   JUNCTION             23.79      4.00       0.0
  J7                   JUNCTION             28.39      4.00       0.0
  J8                   JUNCTION             29.99      4.00       0.0
  J9                   JUNCTION             28.69      4.00       0.0
  J10                  JUNCTION             25.99      4.00       0.0
  J11                  JUNCTION             25.69      4.00       0.0
  J12                  JUNCTION             22.79      4.00       0.0
  J13                  JUNCTION             25.29      4.00       0.0
  J14                  JUNCTION             24.59      4.00       0.0
  J15                  JUNCTION             24.19      4.00       0.0
  J16                  JUNCTION             23.39      4.00       0.0
  J17                  JUNCTION             22.09      4.00       0.0
  J18                  JUNCTION             16.00      4.00       0.0
  J20                  JUNCTION             17.70      4.00       0.0
  J21                  JUNCTION             19.00      4.00       0.0
  J23                  JUNCTION             22.29      4.00       0.0
  J24                  JUNCTION             20.89      4.00       0.0
  J25                  JUNCTION             30.19      4.00       0.0
  J19                  OUTFALL              15.50      3.60       0.0
  
  
  ************
  Link Summary
  ************
  Name             From Node        To Node          Type            Length    %Slope Roughness
  ---------------------------------------------------------------------------------------------
  C0               J0               J2               CONDUIT          214.0    2.3371    0.0110
  C1               J1               J2               CONDUIT          152.0    1.9741    0.0110
  C2               J3               J2               CONDUIT          306.0    1.6342    0.0110
  C3               J4               J3               CONDUIT          128.0    2.3444    0.0110
  C4               J2               J6               CONDUIT          293.0    0.7509    0.0110
  C5               J5               J6               CONDUIT          246.0    2.1143    0.0110
  C6               J25              J11              CONDUIT          289.0    1.5573    0.0110
  C7               J6               J12              CONDUIT          335.0    0.2985    0.0110
  C8               J7               J6               CONDUIT          187.0    2.4606    0.0110
  C9               J8               J9               CONDUIT          119.0    1.0925    0.0110
  C10              J9               J16              CONDUIT          325.0    1.6310    0.0110
  C11              J10              J11              CONDUIT          227.0    0.1322    0.0110
  C12              J12              J18              CONDUIT          401.0    1.6935    0.0110
  C13              J17              J18              CONDUIT          267.0    2.2815    0.0110
  C14              J11              J13              CONDUIT          113.0    0.3540    0.0110
  C16              J13              J17              CONDUIT          409.0    0.7824    0.0110
  C17              J24              J20              CONDUIT          329.0    0.9697    0.0110
  C18              J20              J18              CONDUIT          215.0    0.7907    0.0110
  C19              J16              J21              CONDUIT          437.0    1.0046    0.0110
  C20              J21              J20              CONDUIT          295.0    0.4407    0.0110
  C21              J23              J21              CONDUIT          204.0    1.6130    0.0110
  C23              J18              J19              CONDUIT          161.0    0.3106    0.0110
  C24              J15              J16              CONDUIT          197.0    0.4061    0.0110
  C22              J14              J12              CONDUIT          280.0    0.6429    0.0110
  
  
  *********************
  Cross Section Summary
  *********************
                                        Full     Full     Hyd.     Max.   No. of     Full
  Conduit          Shape               Depth     Area     Rad.    Width  Barrels     Flow
  ---------------------------------------------------------------------------------------
  C0               CIRCULAR             0.70     0.38     0.17     0.70        1     1.67
  C1               CIRCULAR             0.60     0.28     0.15     0.60        1     1.02
  C2               CIRCULAR             0.80     0.50     0.20     0.80        1     2.00
  C3               CIRCULAR             0.60     0.28     0.15     0.60        1     1.11
  C4               CIRCULAR             1.20     1.13     0.30     1.20        1     3.99
  C5               CIRCULAR             0.70     0.38     0.17     0.70        1     1.59
  C6               CIRCULAR             0.80     0.50     0.20     0.80        1     1.95
  C7               CIRCULAR             2.40     4.52     0.60     2.40        1    15.99
  C8               CIRCULAR             0.70     0.38     0.17     0.70        1     1.72
  C9               CIRCULAR             0.70     0.38     0.17     0.70        1     1.14
  C10              CIRCULAR             1.00     0.79     0.25     1.00        1     3.62
  C11              CIRCULAR             1.50     1.77     0.38     1.50        1     3.04
  C12              CIRCULAR             3.00     7.07     0.75     3.00        1    69.04
  C13              CIRCULAR             1.50     1.77     0.38     1.50        1    12.62
  C14              CIRCULAR             1.50     1.77     0.38     1.50        1     4.97
  C16              CIRCULAR             1.35     1.43     0.34     1.35        1     5.58
  C17              CIRCULAR             0.80     0.50     0.20     0.80        1     1.54
  C18              CIRCULAR             3.00     7.07     0.75     3.00        1    47.18
  C19              CIRCULAR             3.00     7.07     0.75     3.00        1    53.18
  C20              CIRCULAR             3.00     7.07     0.75     3.00        1    35.22
  C21              CIRCULAR             1.00     0.79     0.25     1.00        1     3.60
  C23              CIRCULAR             3.60    10.18     0.90     3.60        1    48.08
  C24              CIRCULAR             1.10     0.95     0.28     1.10        1     2.33
  C22              CIRCULAR             1.40     1.54     0.35     1.40        1     5.57
  
  
  
  *********************************************************
  NOTE: The summary statistics displayed in this report are
  based on results found at every computational time step,  
  not just on results from each reporting time step.
  *********************************************************
  
  ****************
  Analysis Options
  ****************
  Flow Units ............... CMS
  Process Models:
    Rainfall/Runoff ........ YES
    RDII ................... NO
    Snowmelt ............... NO
    Groundwater ............ NO
    Flow Routing ........... YES
    Ponding Allowed ........ NO
    Water Quality .......... NO
  Infiltration Method ...... HORTON
  Flow Routing Method ...... DYNWAVE
  Starting Date ............ 07/10/2005 17:10:00
  Ending Date .............. 07/10/2005 22:15:00
  Antecedent Dry Days ...... 0.0
  Report Time Step ......... 00:05:00
  Wet Time Step ............ 00:05:00
  Dry Time Step ............ 01:00:00
  Routing Time Step ........ 30.00 sec
  Variable Time Step ....... YES
  Maximum Trials ........... 8
  Number of Threads ........ 1
  Head Tolerance ........... 0.005000 m
  
  
  **************************        Volume         Depth
  Runoff Quantity Continuity     hectare-m            mm
  **************************     ---------       -------
  Total Precipitation ......         3.520        30.100
  Evaporation Loss .........         0.000         0.000
  Infiltration Loss ........         0.820         7.013
  Surface Runoff ...........         2.097        17.935
  Final Storage ............         0.610         5.213
  Continuity Error (%) .....         0.000
  
  
  **************************        Volume        Volume
  Flow Routing Continuity        hectare-m      10^6 ltr
  **************************     ---------     ---------
  Dry Weather Inflow .......         0.000         0.000
  Wet Weather Inflow .......         2.093        20.927
  Groundwater Inflow .......         0.000         0.000
  RDII Inflow ..............         0.000         0.000
  External Inflow ..........         0.000         0.000
  External Outflow .........         2.074        20.745
  Flooding Loss ............         0.000         0.000
  Evaporation Loss .........         0.000         0.000
  Exfiltration Loss ........         0.000         0.000
  Initial Stored Volume ....         0.021         0.207
  Final Stored Volume ......         0.031         0.307
  Continuity Error (%) .....         0.391
  
  
  ***************************
  Time-Step Critical Elements
  ***************************
  Link C14 (36.49%)
  
  
  ********************************
  Highest Flow Instability Indexes
  ********************************
  Link C7 (2)
  Link C4 (2)
  Link C3 (2)
  Link C1 (2)
  Link C0 (2)
  
  
  *************************
  Routing Time Step Summary
  *************************
  Minimum Time Step           :    11.79 sec
  Average Time Step           :    27.94 sec
  Maximum Time Step           :    30.00 sec
  Percent in Steady State     :    -0.00
  Average Iterations per Step :     2.00
  Percent Not Converging      :     0.00
  
  
  ***************************
  Subcatchment Runoff Summary
  ***************************
  
  --------------------------------------------------------------------------------------------------------
                            Total      Total      Total      Total      Total       Total     Peak  Runoff
                           Precip      Runon       Evap      Infil     Runoff      Runoff   Runoff   Coeff
  Subcatchment                 mm         mm         mm         mm         mm    10^6 ltr      CMS
  --------------------------------------------------------------------------------------------------------
  S1                        30.10       0.00       0.00       0.59      27.86        0.62     0.21   0.926
  S2                        30.10       0.00       0.00       6.68      18.82        1.37     0.35   0.625
  S3                        30.10       0.00       0.00      10.47      15.63        0.24     0.09   0.519
  S4                        30.10       0.00       0.00      11.46      12.20        0.75     0.22   0.405
  S5                        30.10       0.00       0.00      11.48      11.63        1.08     0.29   0.386
  S6                        30.10       0.00       0.00       5.03      21.13        1.48     0.37   0.702
  S7                        30.10       0.00       0.00       7.58      18.69        0.61     0.19   0.621
  S8                        30.10       0.00       0.00       1.85      24.18        2.58     0.55   0.803
  S9                        30.10       0.00       0.00       9.98      12.95        2.13     0.47   0.430
  S10                       30.10       0.00       0.00       8.73      17.31        0.47     0.16   0.575
  S11                       30.10       0.00       0.00       8.95      16.08        1.49     0.43   0.534
  S12                       30.10       0.00       0.00       4.12      21.49        2.27     0.50   0.714
  S13                       30.10       0.00       0.00       3.88      22.38        2.26     0.54   0.743
  S14                       30.10       0.00       0.00       7.72      16.59        1.91     0.44   0.551
  S15                       30.10       0.00       0.00       6.13      19.22        1.71     0.41   0.639
  
  
  ******************
  Node Depth Summary
  ******************
  
  ---------------------------------------------------------------------------------
                                 Average  Maximum  Maximum  Time of Max    Reported
                                   Depth    Depth      HGL   Occurrence   Max Depth
  Node                 Type       Meters   Meters   Meters  days hr:min      Meters
  ---------------------------------------------------------------------------------
  J0                   JUNCTION     0.09     0.22    31.21     0  01:55        0.21
  J1                   JUNCTION     0.07     0.18    29.17     0  01:55        0.18
  J2                   JUNCTION     0.13     0.32    26.31     0  01:58        0.31
  J3                   JUNCTION     0.04     0.11    31.10     0  01:56        0.10
  J4                   JUNCTION     0.04     0.12    34.11     0  01:55        0.11
  J5                   JUNCTION     0.10     0.23    29.22     0  01:55        0.23
  J6                   JUNCTION     0.21     0.47    24.26     0  01:59        0.47
  J7                   JUNCTION     0.08     0.20    28.59     0  01:55        0.19
  J8                   JUNCTION     0.08     0.21    30.20     0  01:55        0.21
  J9                   JUNCTION     0.09     0.22    28.91     0  01:56        0.21
  J10                  JUNCTION     0.15     0.38    26.37     0  01:56        0.37
  J11                  JUNCTION     0.21     0.49    26.18     0  01:58        0.49
  J12                  JUNCTION     0.15     0.32    23.11     0  02:01        0.32
  J13                  JUNCTION     0.18     0.42    25.71     0  01:59        0.42
  J14                  JUNCTION     0.13     0.28    24.87     0  01:57        0.27
  J15                  JUNCTION     0.15     0.33    24.52     0  01:55        0.33
  J16                  JUNCTION     0.11     0.26    23.65     0  01:58        0.25
  J17                  JUNCTION     0.16     0.36    22.45     0  02:00        0.36
  J18                  JUNCTION     0.35     0.79    16.79     0  02:02        0.78
  J20                  JUNCTION     0.17     0.39    18.09     0  02:01        0.38
  J21                  JUNCTION     0.17     0.38    19.38     0  02:00        0.37
  J23                  JUNCTION     0.10     0.23    22.52     0  01:55        0.23
  J24                  JUNCTION     0.14     0.33    21.22     0  01:56        0.32
  J25                  JUNCTION     0.07     0.17    30.36     0  01:56        0.16
  J19                  OUTFALL      0.35     0.79    16.29     0  02:03        0.78
  
  
  *******************
  Node Inflow Summary
  *******************
  
  -------------------------------------------------------------------------------------------------
                                  Maximum  Maximum                  Lateral       Total        Flow
                                  Lateral    Total  Time of Max      Inflow      Inflow     Balance
                                   Inflow   Inflow   Occurrence      Volume      Volume       Error
  Node                 Type           CMS      CMS  days hr:min    10^6 ltr    10^6 ltr     Percent
  -------------------------------------------------------------------------------------------------
  J0                   JUNCTION     0.353    0.353     0  01:55        1.36        1.36      -0.493
  J1                   JUNCTION     0.206    0.206     0  01:55       0.615       0.615      -0.009
  J2                   JUNCTION     0.000    0.637     0  01:55           0        2.22      -0.307
  J3                   JUNCTION     0.000    0.087     0  01:55           0       0.239       0.295
  J4                   JUNCTION     0.088    0.088     0  01:55       0.239       0.239      -0.063
  J5                   JUNCTION     0.374    0.374     0  01:55        1.47        1.47       0.097
  J6                   JUNCTION     0.000    1.258     0  01:57           0        4.78       0.032
  J7                   JUNCTION     0.293    0.293     0  01:55        1.08        1.08       0.078
  J8                   JUNCTION     0.222    0.222     0  01:55       0.752       0.752       0.072
  J9                   JUNCTION     0.158    0.377     0  01:55       0.472        1.22       0.130
  J10                  JUNCTION     0.433    0.433     0  01:55        1.49        1.49       0.173
  J11                  JUNCTION     0.546    1.149     0  01:56        2.58        4.67       0.403
  J12                  JUNCTION     0.000    1.720     0  02:00           0        6.89      -0.182
  J13                  JUNCTION     0.000    1.135     0  01:58           0        4.66       0.233
  J14                  JUNCTION     0.472    0.472     0  01:55        2.12        2.12       0.205
  J15                  JUNCTION     0.442    0.442     0  01:55        1.91        1.91       0.153
  J16                  JUNCTION     0.000    0.816     0  01:56           0        3.13       0.396
  J17                  JUNCTION     0.498    1.634     0  01:59        2.27        6.91       0.213
  J18                  JUNCTION     0.000    5.021     0  02:01           0        20.8       0.390
  J20                  JUNCTION     0.000    1.703     0  02:00           0        7.04       0.317
  J21                  JUNCTION     0.000    1.197     0  01:58           0        4.83       0.587
  J23                  JUNCTION     0.412    0.412     0  01:55        1.71        1.71       0.068
  J24                  JUNCTION     0.537    0.537     0  01:55        2.25        2.25       0.123
  J25                  JUNCTION     0.195    0.195     0  01:55       0.612       0.612       0.032
  J19                  OUTFALL      0.000    5.023     0  02:03           0        20.7       0.000
  
  
  **********************
  Node Surcharge Summary
  **********************
  
  No nodes were surcharged.
  
  
  *********************
  Node Flooding Summary
  *********************
  
  No nodes were flooded.
  
  
  ***********************
  Outfall Loading Summary
  ***********************
  
  -----------------------------------------------------------
                         Flow       Avg       Max       Total
                         Freq      Flow      Flow      Volume
  Outfall Node           Pcnt       CMS       CMS    10^6 ltr
  -----------------------------------------------------------
  J19                  100.00     1.267     5.023      20.745
  -----------------------------------------------------------
  System               100.00     1.267     5.023      20.745
  
  
  ********************
  Link Flow Summary
  ********************
  
  -----------------------------------------------------------------------------
                                 Maximum  Time of Max   Maximum    Max/    Max/
                                  |Flow|   Occurrence   |Veloc|    Full    Full
  Link                 Type          CMS  days hr:min     m/sec    Flow   Depth
  -----------------------------------------------------------------------------
  C0                   CONDUIT     0.353     0  01:55      4.43    0.21    0.38
  C1                   CONDUIT     0.206     0  01:55      1.92    0.20    0.41
  C2                   CONDUIT     0.083     0  01:56      0.77    0.04    0.27
  C3                   CONDUIT     0.087     0  01:55      2.41    0.08    0.19
  C4                   CONDUIT     0.611     0  01:58      1.91    0.15    0.33
  C5                   CONDUIT     0.373     0  01:56      2.06    0.23    0.50
  C6                   CONDUIT     0.191     0  01:56      1.01    0.10    0.41
  C7                   CONDUIT     1.250     0  02:00      2.57    0.08    0.16
  C8                   CONDUIT     0.292     0  01:55      1.74    0.17    0.47
  C9                   CONDUIT     0.222     0  01:55      2.26    0.19    0.30
  C10                  CONDUIT     0.370     0  01:56      2.68    0.10    0.23
  C11                  CONDUIT     0.420     0  01:56      1.01    0.14    0.29
  C12                  CONDUIT     1.707     0  02:01      2.59    0.02    0.19
  C13                  CONDUIT     1.631     0  02:00      2.67    0.13    0.38
  C14                  CONDUIT     1.135     0  01:58      2.52    0.23    0.30
  C16                  CONDUIT     1.137     0  01:59      3.28    0.20    0.29
  C17                  CONDUIT     0.534     0  01:56      2.64    0.35    0.44
  C18                  CONDUIT     1.691     0  02:01      1.73    0.04    0.20
  C19                  CONDUIT     0.791     0  01:58      2.04    0.01    0.10
  C20                  CONDUIT     1.177     0  02:01      2.25    0.03    0.13
  C21                  CONDUIT     0.412     0  01:55      2.24    0.11    0.30
  C23                  CONDUIT     5.023     0  02:03      3.66    0.10    0.22
  C24                  CONDUIT     0.445     0  01:56      2.21    0.19    0.27
  C22                  CONDUIT     0.471     0  01:57      2.09    0.08    0.21
  
  
  ***************************
  Flow Classification Summary
  ***************************
  
  -------------------------------------------------------------------------------------
                      Adjusted    ---------- Fraction of Time in Flow Class ---------- 
                       /Actual         Up    Down  Sub   Sup   Up    Down  Norm  Inlet 
  Conduit               Length    Dry  Dry   Dry   Crit  Crit  Crit  Crit  Ltd   Ctrl  
  -------------------------------------------------------------------------------------
  C0                      1.00   0.00  0.00  0.00  0.06  0.94  0.00  0.00  1.00  0.00
  C1                      1.00   0.00  0.02  0.00  0.56  0.41  0.00  0.00  0.98  0.00
  C2                      1.00   0.00  0.02  0.00  0.98  0.00  0.00  0.00  0.98  0.00
  C3                      1.00   0.02  0.00  0.00  0.01  0.97  0.00  0.00  0.76  0.00
  C4                      1.00   0.00  0.00  0.00  0.60  0.40  0.00  0.00  1.00  0.00
  C5                      1.00   0.00  0.02  0.00  0.26  0.71  0.00  0.00  0.98  0.00
  C6                      1.00   0.02  0.00  0.00  0.94  0.04  0.00  0.00  0.98  0.00
  C7                      1.00   0.00  0.00  0.00  0.00  1.00  0.00  0.00  0.00  0.00
  C8                      1.00   0.00  0.02  0.00  0.80  0.18  0.00  0.00  0.98  0.00
  C9                      1.00   0.02  0.00  0.00  0.03  0.96  0.00  0.00  0.85  0.00
  C10                     1.00   0.02  0.00  0.00  0.01  0.97  0.00  0.00  0.87  0.00
  C11                     1.00   0.02  0.00  0.00  0.98  0.00  0.00  0.00  0.89  0.00
  C12                     1.00   0.00  0.00  0.00  0.93  0.07  0.00  0.00  1.00  0.00
  C13                     1.00   0.00  0.02  0.00  0.08  0.89  0.00  0.00  0.98  0.00
  C14                     1.00   0.02  0.00  0.00  0.05  0.93  0.00  0.00  0.18  0.00
  C16                     1.00   0.02  0.00  0.00  0.07  0.91  0.00  0.00  0.06  0.00
  C17                     1.00   0.02  0.00  0.00  0.02  0.96  0.00  0.00  0.86  0.00
  C18                     1.00   0.00  0.02  0.00  0.98  0.00  0.00  0.00  0.98  0.00
  C19                     1.00   0.02  0.00  0.00  0.06  0.92  0.00  0.00  0.98  0.00
  C20                     1.00   0.02  0.00  0.00  0.08  0.90  0.00  0.00  0.67  0.00
  C21                     1.00   0.02  0.00  0.00  0.02  0.96  0.00  0.00  0.91  0.00
  C23                     1.00   0.00  0.00  0.00  0.00  1.00  0.00  0.00  0.43  0.00
  C24                     1.00   0.02  0.00  0.00  0.04  0.95  0.00  0.00  0.00  0.00
  C22                     1.00   0.00  0.02  0.00  0.06  0.92  0.00  0.00  0.92  0.00
  
  
  *************************
  Conduit Surcharge Summary
  *************************
  
  No conduits were surcharged.
  
  
  ********************
  Subcatchment Results
  ********************
  
  <<< Subcatchment S1 >>>
  ---------------------------------------------------
  Date        Time        Precip.    Losses    Runoff
                            mm/hr     mm/hr       CMS
  ---------------------------------------------------
   07/10/2005 17:15:00      1.200     0.030    0.0000
   07/10/2005 17:20:00      3.600     0.088    0.0000
   07/10/2005 17:25:00      7.200     0.170    0.0003
   07/10/2005 17:30:00     10.800     0.239    0.0014
   07/10/2005 17:35:00      6.000     0.121    0.0045
   07/10/2005 17:40:00      3.600     0.069    0.0080
   07/10/2005 17:45:00      2.400     0.046    0.0097
   07/10/2005 17:50:00      3.600     0.069    0.0103
   07/10/2005 17:55:00      3.600     0.069    0.0120
   07/10/2005 18:00:00      3.600     0.069    0.0135
   07/10/2005 18:05:00      8.400     0.161    0.0149
   07/10/2005 18:10:00     21.600     0.415    0.0217
   07/10/2005 18:15:00     12.000     0.230    0.0478
   07/10/2005 18:20:00     24.000     0.461    0.0544
   07/10/2005 18:25:00     24.000     0.461    0.0817
   07/10/2005 18:30:00      7.200     0.138    0.1026
   07/10/2005 18:35:00     18.000     0.346    0.0824
   07/10/2005 18:40:00      4.800     0.092    0.0910
   07/10/2005 18:45:00     10.800     0.207    0.0708
   07/10/2005 18:50:00     25.200     0.484    0.0690
   07/10/2005 18:55:00     28.800     0.553    0.0961
   07/10/2005 19:00:00     54.000     1.037    0.1240
   07/10/2005 19:05:00     21.600     0.415    0.2062
   07/10/2005 19:10:00     10.800     0.207    0.1739
   07/10/2005 19:15:00      2.400     0.046    0.1307
   07/10/2005 19:20:00      1.200     0.023    0.0892
   07/10/2005 19:25:00      0.000     0.000    0.0632
   07/10/2005 19:30:00      0.000     0.000    0.0452
   07/10/2005 19:35:00      1.200     0.023    0.0337
   07/10/2005 19:40:00      0.000     0.000    0.0275
   07/10/2005 19:45:00      0.000     0.000    0.0216
   07/10/2005 19:50:00      0.000     0.000    0.0173
   07/10/2005 19:55:00      1.200     0.023    0.0141
   07/10/2005 20:00:00      8.400     0.161    0.0129
   07/10/2005 20:05:00      7.200     0.138    0.0200
   07/10/2005 20:10:00      2.400     0.046    0.0249
   07/10/2005 20:15:00      1.200     0.023    0.0226
   07/10/2005 20:20:00      2.400     0.046    0.0195
   07/10/2005 20:25:00      3.600     0.069    0.0185
   07/10/2005 20:30:00      3.600     0.069    0.0191
   07/10/2005 20:35:00      2.400     0.046    0.0196
   07/10/2005 20:40:00      1.200     0.023    0.0186
   07/10/2005 20:45:00      1.200     0.023    0.0164
   07/10/2005 20:50:00      0.000     0.000    0.0147
   07/10/2005 20:55:00      1.200     0.023    0.0121
   07/10/2005 21:00:00      1.200     0.023    0.0113
   07/10/2005 21:05:00      1.200     0.023    0.0107
   07/10/2005 21:10:00      1.200     0.023    0.0101
   07/10/2005 21:15:00      0.000     0.000    0.0097
   07/10/2005 21:20:00      0.000     0.000    0.0082
   07/10/2005 21:25:00      0.000     0.000    0.0070
   07/10/2005 21:30:00      0.000     0.000    0.0061
   07/10/2005 21:35:00      0.000     0.000    0.0053
   07/10/2005 21:40:00      0.000     0.000    0.0047
   07/10/2005 21:45:00      0.000     0.000    0.0041
   07/10/2005 21:50:00      0.000     0.000    0.0037
   07/10/2005 21:55:00      0.000     0.000    0.0033
   07/10/2005 22:00:00      0.000     0.000    0.0030
   07/10/2005 22:05:00      0.000     0.000    0.0027
   07/10/2005 22:10:00      0.000     0.000    0.0024
  
  
  <<< Subcatchment S2 >>>
  ---------------------------------------------------
  Date        Time        Precip.    Losses    Runoff
                            mm/hr     mm/hr       CMS
  ---------------------------------------------------
   07/10/2005 17:15:00      1.200     0.337    0.0000
   07/10/2005 17:20:00      3.600     1.001    0.0000
   07/10/2005 17:25:00      7.200     1.937    0.0000
   07/10/2005 17:30:00     10.800     2.724    0.0014
   07/10/2005 17:35:00      6.000     1.377    0.0049
   07/10/2005 17:40:00      3.600     0.788    0.0090
   07/10/2005 17:45:00      2.400     0.526    0.0116
   07/10/2005 17:50:00      3.600     0.788    0.0130
   07/10/2005 17:55:00      3.600     0.788    0.0157
   07/10/2005 18:00:00      3.600     0.788    0.0184
   07/10/2005 18:05:00      8.400     1.840    0.0211
   07/10/2005 18:10:00     21.600     4.730    0.0304
   07/10/2005 18:15:00     12.000     2.628    0.0639
   07/10/2005 18:20:00     24.000     5.256    0.0783
   07/10/2005 18:25:00     24.000     5.256    0.1195
   07/10/2005 18:30:00      7.200     1.577    0.1580
   07/10/2005 18:35:00     18.000     3.942    0.1443
   07/10/2005 18:40:00      4.800     1.051    0.1630
   07/10/2005 18:45:00     10.800     2.365    0.1419
   07/10/2005 18:50:00     25.200     5.519    0.1416
   07/10/2005 18:55:00     28.800     6.307    0.1816
   07/10/2005 19:00:00     54.000    11.826    0.2269
   07/10/2005 19:05:00     21.600     4.730    0.3526
   07/10/2005 19:10:00     10.800     2.365    0.3345
   07/10/2005 19:15:00      2.400     0.526    0.2847
   07/10/2005 19:20:00      1.200     0.263    0.2236
   07/10/2005 19:25:00      0.000     0.000    0.1778
   07/10/2005 19:30:00      0.000     0.000    0.1419
   07/10/2005 19:35:00      1.200     0.263    0.1157
   07/10/2005 19:40:00      0.000     0.000    0.0989
   07/10/2005 19:45:00      0.000     0.000    0.0832
   07/10/2005 19:50:00      0.000     0.000    0.0710
   07/10/2005 19:55:00      1.200     0.263    0.0613
   07/10/2005 20:00:00      8.400     1.840    0.0557
   07/10/2005 20:05:00      7.200     1.577    0.0646
   07/10/2005 20:10:00      2.400     0.526    0.0701
   07/10/2005 20:15:00      1.200     0.263    0.0654
   07/10/2005 20:20:00      2.400     0.526    0.0591
   07/10/2005 20:25:00      3.600     0.788    0.0562
   07/10/2005 20:30:00      3.600     0.788    0.0559
   07/10/2005 20:35:00      2.400     0.526    0.0557
   07/10/2005 20:40:00      1.200     0.263    0.0533
   07/10/2005 20:45:00      1.200     0.263    0.0492
   07/10/2005 20:50:00      0.000     0.000    0.0457
   07/10/2005 20:55:00      1.200     0.263    0.0408
   07/10/2005 21:00:00      1.200     0.263    0.0385
   07/10/2005 21:05:00      1.200     0.263    0.0366
   07/10/2005 21:10:00      1.200     0.263    0.0349
   07/10/2005 21:15:00      0.000     0.000    0.0334
   07/10/2005 21:20:00      0.000     0.000    0.0304
   07/10/2005 21:25:00      0.000     0.000    0.0278
   07/10/2005 21:30:00      0.000     0.000    0.0255
   07/10/2005 21:35:00      0.000     0.000    0.0236
   07/10/2005 21:40:00      0.000     0.000    0.0219
   07/10/2005 21:45:00      0.000     0.000    0.0203
   07/10/2005 21:50:00      0.000     0.000    0.0190
   07/10/2005 21:55:00      0.000     0.000    0.0178
   07/10/2005 22:00:00      0.000     0.000    0.0167
   07/10/2005 22:05:00      0.000     0.000    0.0157
   07/10/2005 22:10:00      0.000     0.000    0.0148
  
  
  <<< Subcatchment S3 >>>
  ---------------------------------------------------
  Date        Time        Precip.    Losses    Runoff
                            mm/hr     mm/hr       CMS
  ---------------------------------------------------
   07/10/2005 17:15:00      1.200     0.529    0.0000
   07/10/2005 17:20:00      3.600     1.569    0.0000
   07/10/2005 17:25:00      7.200     3.036    0.0003
   07/10/2005 17:30:00     10.800     4.268    0.0011
   07/10/2005 17:35:00      6.000     2.158    0.0035
   07/10/2005 17:40:00      3.600     1.236    0.0055
   07/10/2005 17:45:00      2.400     0.824    0.0058
   07/10/2005 17:50:00      3.600     1.236    0.0052
   07/10/2005 17:55:00      3.600     1.236    0.0057
   07/10/2005 18:00:00      3.600     1.236    0.0060
   07/10/2005 18:05:00      8.400     2.883    0.0062
   07/10/2005 18:10:00     21.600     7.413    0.0099
   07/10/2005 18:15:00     12.000     4.118    0.0247
   07/10/2005 18:20:00     24.000     8.237    0.0231
   07/10/2005 18:25:00     24.000     8.237    0.0350
   07/10/2005 18:30:00      7.200     2.471    0.0406
   07/10/2005 18:35:00     18.000     6.178    0.0247
   07/10/2005 18:40:00      4.800     1.647    0.0299
   07/10/2005 18:45:00     10.800     3.707    0.0189
   07/10/2005 18:50:00     25.200     8.649    0.0200
   07/10/2005 18:55:00     28.800     9.884    0.0361
   07/10/2005 19:00:00     54.000    18.533    0.0487
   07/10/2005 19:05:00     21.600     7.413    0.0882
   07/10/2005 19:10:00     10.800     3.707    0.0595
   07/10/2005 19:15:00      2.400     0.824    0.0392
   07/10/2005 19:20:00      1.200     0.412    0.0238
   07/10/2005 19:25:00      0.000     0.000    0.0166
   07/10/2005 19:30:00      0.000     0.000    0.0121
   07/10/2005 19:35:00      1.200     0.412    0.0096
   07/10/2005 19:40:00      0.000     0.000    0.0088
   07/10/2005 19:45:00      0.000     0.000    0.0075
   07/10/2005 19:50:00      0.000     0.000    0.0066
   07/10/2005 19:55:00      1.200     0.412    0.0059
   07/10/2005 20:00:00      8.400     2.883    0.0059
   07/10/2005 20:05:00      7.200     2.471    0.0103
   07/10/2005 20:10:00      2.400     0.824    0.0133
   07/10/2005 20:15:00      1.200     0.412    0.0115
   07/10/2005 20:20:00      2.400     0.824    0.0095
   07/10/2005 20:25:00      3.600     1.236    0.0091
   07/10/2005 20:30:00      3.600     1.236    0.0097
   07/10/2005 20:35:00      2.400     0.824    0.0100
   07/10/2005 20:40:00      1.200     0.412    0.0094
   07/10/2005 20:45:00      1.200     0.412    0.0082
   07/10/2005 20:50:00      0.000     0.000    0.0074
   07/10/2005 20:55:00      1.200     0.412    0.0061
   07/10/2005 21:00:00      1.200     0.412    0.0059
   07/10/2005 21:05:00      1.200     0.412    0.0057
   07/10/2005 21:10:00      1.200     0.412    0.0055
   07/10/2005 21:15:00      0.000     0.000    0.0054
   07/10/2005 21:20:00      0.000     0.000    0.0047
   07/10/2005 21:25:00      0.000     0.000    0.0041
   07/10/2005 21:30:00      0.000     0.000    0.0037
   07/10/2005 21:35:00      0.000     0.000    0.0034
   07/10/2005 21:40:00      0.000     0.000    0.0031
   07/10/2005 21:45:00      0.000     0.000    0.0029
   07/10/2005 21:50:00      0.000     0.000    0.0027
   07/10/2005 21:55:00      0.000     0.000    0.0026
   07/10/2005 22:00:00      0.000     0.000    0.0024
   07/10/2005 22:05:00      0.000     0.000    0.0023
   07/10/2005 22:10:00      0.000     0.000    0.0022
  
  
  <<< Subcatchment S4 >>>
  ---------------------------------------------------
  Date        Time        Precip.    Losses    Runoff
                            mm/hr     mm/hr       CMS
  ---------------------------------------------------
   07/10/2005 17:15:00      1.200     0.579    0.0000
   07/10/2005 17:20:00      3.600     1.717    0.0000
   07/10/2005 17:25:00      7.200     3.322    0.0000
   07/10/2005 17:30:00     10.800     4.671    0.0014
   07/10/2005 17:35:00      6.000     2.362    0.0046
   07/10/2005 17:40:00      3.600     1.352    0.0081
   07/10/2005 17:45:00      2.400     0.901    0.0100
   07/10/2005 17:50:00      3.600     1.352    0.0106
   07/10/2005 17:55:00      3.600     1.352    0.0124
   07/10/2005 18:00:00      3.600     1.352    0.0141
   07/10/2005 18:05:00      8.400     3.155    0.0156
   07/10/2005 18:10:00     21.600     8.113    0.0226
   07/10/2005 18:15:00     12.000     4.507    0.0495
   07/10/2005 18:20:00     24.000     9.014    0.0568
   07/10/2005 18:25:00     24.000     9.014    0.0855
   07/10/2005 18:30:00      7.200     2.704    0.1080
   07/10/2005 18:35:00     18.000     6.761    0.0881
   07/10/2005 18:40:00      4.800     1.803    0.0974
   07/10/2005 18:45:00     10.800     4.056    0.0770
   07/10/2005 18:50:00     25.200     9.465    0.0753
   07/10/2005 18:55:00     28.800    10.817    0.1039
   07/10/2005 19:00:00     54.000    20.282    0.1340
   07/10/2005 19:05:00     21.600     8.113    0.2218
   07/10/2005 19:10:00     10.800     4.056    0.1919
   07/10/2005 19:15:00      2.400     0.901    0.1487
   07/10/2005 19:20:00      1.200     0.451    0.1056
   07/10/2005 19:25:00      0.000     0.000    0.0780
   07/10/2005 19:30:00      0.000     0.000    0.0586
   07/10/2005 19:35:00      1.200     0.451    0.0459
   07/10/2005 19:40:00      0.000     0.000    0.0390
   07/10/2005 19:45:00      0.000     0.000    0.0323
   07/10/2005 19:50:00      0.000     0.000    0.0274
   07/10/2005 19:55:00      1.200     0.451    0.0238
   07/10/2005 20:00:00      8.400     3.155    0.0223
   07/10/2005 20:05:00      7.200     2.704    0.0299
   07/10/2005 20:10:00      2.400     0.901    0.0353
   07/10/2005 20:15:00      1.200     0.451    0.0329
   07/10/2005 20:20:00      2.400     0.901    0.0296
   07/10/2005 20:25:00      3.600     1.352    0.0285
   07/10/2005 20:30:00      3.600     1.352    0.0292
   07/10/2005 20:35:00      2.400     0.901    0.0298
   07/10/2005 20:40:00      1.200     0.451    0.0288
   07/10/2005 20:45:00      1.200     0.451    0.0264
   07/10/2005 20:50:00      0.000     0.000    0.0246
   07/10/2005 20:55:00      1.200     0.451    0.0217
   07/10/2005 21:00:00      1.200     0.451    0.0208
   07/10/2005 21:05:00      1.200     0.451    0.0200
   07/10/2005 21:10:00      1.200     0.451    0.0194
   07/10/2005 21:15:00      0.000     0.000    0.0188
   07/10/2005 21:20:00      0.000     0.000    0.0171
   07/10/2005 21:25:00      0.000     0.000    0.0158
   07/10/2005 21:30:00      0.000     0.000    0.0146
   07/10/2005 21:35:00      0.000     0.000    0.0137
   07/10/2005 21:40:00      0.000     0.000    0.0128
   07/10/2005 21:45:00      0.000     0.000    0.0121
   07/10/2005 21:50:00      0.000     0.000    0.0115
   07/10/2005 21:55:00      0.000     0.000    0.0110
   07/10/2005 22:00:00      0.000     0.000    0.0105
   07/10/2005 22:05:00      0.000     0.000    0.0101
   07/10/2005 22:10:00      0.000     0.000    0.0097
  
  
  <<< Subcatchment S5 >>>
  ---------------------------------------------------
  Date        Time        Precip.    Losses    Runoff
                            mm/hr     mm/hr       CMS
  ---------------------------------------------------
   07/10/2005 17:15:00      1.200     0.580    0.0000
   07/10/2005 17:20:00      3.600     1.720    0.0000
   07/10/2005 17:25:00      7.200     3.328    0.0000
   07/10/2005 17:30:00     10.800     4.679    0.0014
   07/10/2005 17:35:00      6.000     2.365    0.0048
   07/10/2005 17:40:00      3.600     1.354    0.0087
   07/10/2005 17:45:00      2.400     0.903    0.0110
   07/10/2005 17:50:00      3.600     1.354    0.0121
   07/10/2005 17:55:00      3.600     1.354    0.0145
   07/10/2005 18:00:00      3.600     1.354    0.0167
   07/10/2005 18:05:00      8.400     3.160    0.0189
   07/10/2005 18:10:00     21.600     8.126    0.0273
   07/10/2005 18:15:00     12.000     4.514    0.0582
   07/10/2005 18:20:00     24.000     9.029    0.0696
   07/10/2005 18:25:00     24.000     9.029    0.1055
   07/10/2005 18:30:00      7.200     2.709    0.1370
   07/10/2005 18:35:00     18.000     6.772    0.1199
   07/10/2005 18:40:00      4.800     1.806    0.1339
   07/10/2005 18:45:00     10.800     4.063    0.1122
   07/10/2005 18:50:00     25.200     9.480    0.1107
   07/10/2005 18:55:00     28.800    10.835    0.1454
   07/10/2005 19:00:00     54.000    20.315    0.1836
   07/10/2005 19:05:00     21.600     8.126    0.2925
   07/10/2005 19:10:00     10.800     4.063    0.2682
   07/10/2005 19:15:00      2.400     0.903    0.2200
   07/10/2005 19:20:00      1.200     0.451    0.1660
   07/10/2005 19:25:00      0.000     0.000    0.1280
   07/10/2005 19:30:00      0.000     0.000    0.0995
   07/10/2005 19:35:00      1.200     0.451    0.0797
   07/10/2005 19:40:00      0.000     0.000    0.0677
   07/10/2005 19:45:00      0.000     0.000    0.0565
   07/10/2005 19:50:00      0.000     0.000    0.0480
   07/10/2005 19:55:00      1.200     0.451    0.0415
   07/10/2005 20:00:00      8.400     3.160    0.0381
   07/10/2005 20:05:00      7.200     2.709    0.0467
   07/10/2005 20:10:00      2.400     0.903    0.0524
   07/10/2005 20:15:00      1.200     0.451    0.0490
   07/10/2005 20:20:00      2.400     0.903    0.0443
   07/10/2005 20:25:00      3.600     1.354    0.0425
   07/10/2005 20:30:00      3.600     1.354    0.0429
   07/10/2005 20:35:00      2.400     0.903    0.0432
   07/10/2005 20:40:00      1.200     0.451    0.0416
   07/10/2005 20:45:00      1.200     0.451    0.0385
   07/10/2005 20:50:00      0.000     0.000    0.0359
   07/10/2005 20:55:00      1.200     0.451    0.0321
   07/10/2005 21:00:00      1.200     0.451    0.0306
   07/10/2005 21:05:00      1.200     0.451    0.0293
   07/10/2005 21:10:00      1.200     0.451    0.0282
   07/10/2005 21:15:00      0.000     0.000    0.0273
   07/10/2005 21:20:00      0.000     0.000    0.0250
   07/10/2005 21:25:00      0.000     0.000    0.0230
   07/10/2005 21:30:00      0.000     0.000    0.0214
   07/10/2005 21:35:00      0.000     0.000    0.0200
   07/10/2005 21:40:00      0.000     0.000    0.0187
   07/10/2005 21:45:00      0.000     0.000    0.0177
   07/10/2005 21:50:00      0.000     0.000    0.0167
   07/10/2005 21:55:00      0.000     0.000    0.0159
   07/10/2005 22:00:00      0.000     0.000    0.0152
   07/10/2005 22:05:00      0.000     0.000    0.0145
   07/10/2005 22:10:00      0.000     0.000    0.0139
  
  
  <<< Subcatchment S6 >>>
  ---------------------------------------------------
  Date        Time        Precip.    Losses    Runoff
                            mm/hr     mm/hr       CMS
  ---------------------------------------------------
   07/10/2005 17:15:00      1.200     0.254    0.0000
   07/10/2005 17:20:00      3.600     0.754    0.0000
   07/10/2005 17:25:00      7.200     1.460    0.0000
   07/10/2005 17:30:00     10.800     2.052    0.0014
   07/10/2005 17:35:00      6.000     1.037    0.0049
   07/10/2005 17:40:00      3.600     0.594    0.0091
   07/10/2005 17:45:00      2.400     0.396    0.0117
   07/10/2005 17:50:00      3.600     0.594    0.0132
   07/10/2005 17:55:00      3.600     0.594    0.0161
   07/10/2005 18:00:00      3.600     0.594    0.0189
   07/10/2005 18:05:00      8.400     1.386    0.0218
   07/10/2005 18:10:00     21.600     3.564    0.0314
   07/10/2005 18:15:00     12.000     1.980    0.0657
   07/10/2005 18:20:00     24.000     3.960    0.0810
   07/10/2005 18:25:00     24.000     3.960    0.1240
   07/10/2005 18:30:00      7.200     1.188    0.1648
   07/10/2005 18:35:00     18.000     2.970    0.1524
   07/10/2005 18:40:00      4.800     0.792    0.1729
   07/10/2005 18:45:00     10.800     1.782    0.1523
   07/10/2005 18:50:00     25.200     4.158    0.1527
   07/10/2005 18:55:00     28.800     4.752    0.1947
   07/10/2005 19:00:00     54.000     8.910    0.2426
   07/10/2005 19:05:00     21.600     3.564    0.3742
   07/10/2005 19:10:00     10.800     1.782    0.3586
   07/10/2005 19:15:00      2.400     0.396    0.3087
   07/10/2005 19:20:00      1.200     0.198    0.2454
   07/10/2005 19:25:00      0.000     0.000    0.1971
   07/10/2005 19:30:00      0.000     0.000    0.1587
   07/10/2005 19:35:00      1.200     0.198    0.1303
   07/10/2005 19:40:00      0.000     0.000    0.1116
   07/10/2005 19:45:00      0.000     0.000    0.0943
   07/10/2005 19:50:00      0.000     0.000    0.0806
   07/10/2005 19:55:00      1.200     0.198    0.0697
   07/10/2005 20:00:00      8.400     1.386    0.0632
   07/10/2005 20:05:00      7.200     1.188    0.0721
   07/10/2005 20:10:00      2.400     0.396    0.0775
   07/10/2005 20:15:00      1.200     0.198    0.0721
   07/10/2005 20:20:00      2.400     0.396    0.0653
   07/10/2005 20:25:00      3.600     0.594    0.0619
   07/10/2005 20:30:00      3.600     0.594    0.0613
   07/10/2005 20:35:00      2.400     0.396    0.0608
   07/10/2005 20:40:00      1.200     0.198    0.0581
   07/10/2005 20:45:00      1.200     0.198    0.0535
   07/10/2005 20:50:00      0.000     0.000    0.0497
   07/10/2005 20:55:00      1.200     0.198    0.0443
   07/10/2005 21:00:00      1.200     0.198    0.0418
   07/10/2005 21:05:00      1.200     0.198    0.0396
   07/10/2005 21:10:00      1.200     0.198    0.0377
   07/10/2005 21:15:00      0.000     0.000    0.0360
   07/10/2005 21:20:00      0.000     0.000    0.0326
   07/10/2005 21:25:00      0.000     0.000    0.0298
   07/10/2005 21:30:00      0.000     0.000    0.0273
   07/10/2005 21:35:00      0.000     0.000    0.0251
   07/10/2005 21:40:00      0.000     0.000    0.0232
   07/10/2005 21:45:00      0.000     0.000    0.0215
   07/10/2005 21:50:00      0.000     0.000    0.0200
   07/10/2005 21:55:00      0.000     0.000    0.0186
   07/10/2005 22:00:00      0.000     0.000    0.0174
   07/10/2005 22:05:00      0.000     0.000    0.0163
   07/10/2005 22:10:00      0.000     0.000    0.0153
  
  
  <<< Subcatchment S7 >>>
  ---------------------------------------------------
  Date        Time        Precip.    Losses    Runoff
                            mm/hr     mm/hr       CMS
  ---------------------------------------------------
   07/10/2005 17:15:00      1.200     0.383    0.0000
   07/10/2005 17:20:00      3.600     1.135    0.0000
   07/10/2005 17:25:00      7.200     2.197    0.0003
   07/10/2005 17:30:00     10.800     3.089    0.0013
   07/10/2005 17:35:00      6.000     1.562    0.0045
   07/10/2005 17:40:00      3.600     0.894    0.0078
   07/10/2005 17:45:00      2.400     0.596    0.0094
   07/10/2005 17:50:00      3.600     0.894    0.0099
   07/10/2005 17:55:00      3.600     0.894    0.0114
   07/10/2005 18:00:00      3.600     0.894    0.0128
   07/10/2005 18:05:00      8.400     2.087    0.0140
   07/10/2005 18:10:00     21.600     5.365    0.0205
   07/10/2005 18:15:00     12.000     2.981    0.0455
   07/10/2005 18:20:00     24.000     5.962    0.0511
   07/10/2005 18:25:00     24.000     5.962    0.0766
   07/10/2005 18:30:00      7.200     1.788    0.0956
   07/10/2005 18:35:00     18.000     4.471    0.0752
   07/10/2005 18:40:00      4.800     1.192    0.0831
   07/10/2005 18:45:00     10.800     2.683    0.0638
   07/10/2005 18:50:00     25.200     6.260    0.0624
   07/10/2005 18:55:00     28.800     7.154    0.0887
   07/10/2005 19:00:00     54.000    13.414    0.1155
   07/10/2005 19:05:00     21.600     5.365    0.1947
   07/10/2005 19:10:00     10.800     2.683    0.1631
   07/10/2005 19:15:00      2.400     0.596    0.1227
   07/10/2005 19:20:00      1.200     0.298    0.0844
   07/10/2005 19:25:00      0.000     0.000    0.0608
   07/10/2005 19:30:00      0.000     0.000    0.0447
   07/10/2005 19:35:00      1.200     0.298    0.0345
   07/10/2005 19:40:00      0.000     0.000    0.0291
   07/10/2005 19:45:00      0.000     0.000    0.0238
   07/10/2005 19:50:00      0.000     0.000    0.0199
   07/10/2005 19:55:00      1.200     0.298    0.0170
   07/10/2005 20:00:00      8.400     2.087    0.0160
   07/10/2005 20:05:00      7.200     1.788    0.0230
   07/10/2005 20:10:00      2.400     0.596    0.0279
   07/10/2005 20:15:00      1.200     0.298    0.0258
   07/10/2005 20:20:00      2.400     0.596    0.0227
   07/10/2005 20:25:00      3.600     0.894    0.0217
   07/10/2005 20:30:00      3.600     0.894    0.0224
   07/10/2005 20:35:00      2.400     0.596    0.0229
   07/10/2005 20:40:00      1.200     0.298    0.0219
   07/10/2005 20:45:00      1.200     0.298    0.0197
   07/10/2005 20:50:00      0.000     0.000    0.0181
   07/10/2005 20:55:00      1.200     0.298    0.0155
   07/10/2005 21:00:00      1.200     0.298    0.0147
   07/10/2005 21:05:00      1.200     0.298    0.0140
   07/10/2005 21:10:00      1.200     0.298    0.0134
   07/10/2005 21:15:00      0.000     0.000    0.0129
   07/10/2005 21:20:00      0.000     0.000    0.0115
   07/10/2005 21:25:00      0.000     0.000    0.0103
   07/10/2005 21:30:00      0.000     0.000    0.0093
   07/10/2005 21:35:00      0.000     0.000    0.0084
   07/10/2005 21:40:00      0.000     0.000    0.0077
   07/10/2005 21:45:00      0.000     0.000    0.0071
   07/10/2005 21:50:00      0.000     0.000    0.0066
   07/10/2005 21:55:00      0.000     0.000    0.0062
   07/10/2005 22:00:00      0.000     0.000    0.0058
   07/10/2005 22:05:00      0.000     0.000    0.0054
   07/10/2005 22:10:00      0.000     0.000    0.0051
  
  
  <<< Subcatchment S8 >>>
  ---------------------------------------------------
  Date        Time        Precip.    Losses    Runoff
                            mm/hr     mm/hr       CMS
  ---------------------------------------------------
   07/10/2005 17:15:00      1.200     0.093    0.0000
   07/10/2005 17:20:00      3.600     0.277    0.0000
   07/10/2005 17:25:00      7.200     0.536    0.0000
   07/10/2005 17:30:00     10.800     0.754    0.0015
   07/10/2005 17:35:00      6.000     0.381    0.0051
   07/10/2005 17:40:00      3.600     0.218    0.0095
   07/10/2005 17:45:00      2.400     0.145    0.0126
   07/10/2005 17:50:00      3.600     0.218    0.0146
   07/10/2005 17:55:00      3.600     0.218    0.0181
   07/10/2005 18:00:00      3.600     0.218    0.0218
   07/10/2005 18:05:00      8.400     0.509    0.0256
   07/10/2005 18:10:00     21.600     1.309    0.0370
   07/10/2005 18:15:00     12.000     0.727    0.0761
   07/10/2005 18:20:00     24.000     1.454    0.0972
   07/10/2005 18:25:00     24.000     1.454    0.1509
   07/10/2005 18:30:00      7.200     0.436    0.2068
   07/10/2005 18:35:00     18.000     1.091    0.2051
   07/10/2005 18:40:00      4.800     0.291    0.2396
   07/10/2005 18:45:00     10.800     0.654    0.2257
   07/10/2005 18:50:00     25.200     1.527    0.2339
   07/10/2005 18:55:00     28.800     1.745    0.2926
   07/10/2005 19:00:00     54.000     3.272    0.3619
   07/10/2005 19:05:00     21.600     1.309    0.5378
   07/10/2005 19:10:00     10.800     0.654    0.5464
   07/10/2005 19:15:00      2.400     0.145    0.5042
   07/10/2005 19:20:00      1.200     0.073    0.4338
   07/10/2005 19:25:00      0.000     0.000    0.3730
   07/10/2005 19:30:00      0.000     0.000    0.3196
   07/10/2005 19:35:00      1.200     0.073    0.2764
   07/10/2005 19:40:00      0.000     0.000    0.2451
   07/10/2005 19:45:00      0.000     0.000    0.2151
   07/10/2005 19:50:00      0.000     0.000    0.1900
   07/10/2005 19:55:00      1.200     0.073    0.1689
   07/10/2005 20:00:00      8.400     0.509    0.1544
   07/10/2005 20:05:00      7.200     0.436    0.1627
   07/10/2005 20:10:00      2.400     0.145    0.1666
   07/10/2005 20:15:00      1.200     0.073    0.1560
   07/10/2005 20:20:00      2.400     0.145    0.1433
   07/10/2005 20:25:00      3.600     0.218    0.1356
   07/10/2005 20:30:00      3.600     0.218    0.1320
   07/10/2005 20:35:00      2.400     0.145    0.1289
   07/10/2005 20:40:00      1.200     0.073    0.1229
   07/10/2005 20:45:00      1.200     0.073    0.1144
   07/10/2005 20:50:00      0.000     0.000    0.1070
   07/10/2005 20:55:00      1.200     0.073    0.0975
   07/10/2005 21:00:00      1.200     0.073    0.0920
   07/10/2005 21:05:00      1.200     0.073    0.0870
   07/10/2005 21:10:00      1.200     0.073    0.0826
   07/10/2005 21:15:00      0.000     0.000    0.0786
   07/10/2005 21:20:00      0.000     0.000    0.0724
   07/10/2005 21:25:00      0.000     0.000    0.0669
   07/10/2005 21:30:00      0.000     0.000    0.0620
   07/10/2005 21:35:00      0.000     0.000    0.0575
   07/10/2005 21:40:00      0.000     0.000    0.0535
   07/10/2005 21:45:00      0.000     0.000    0.0499
   07/10/2005 21:50:00      0.000     0.000    0.0466
   07/10/2005 21:55:00      0.000     0.000    0.0436
   07/10/2005 22:00:00      0.000     0.000    0.0409
   07/10/2005 22:05:00      0.000     0.000    0.0384
   07/10/2005 22:10:00      0.000     0.000    0.0361
  
  
  <<< Subcatchment S9 >>>
  ---------------------------------------------------
  Date        Time        Precip.    Losses    Runoff
                            mm/hr     mm/hr       CMS
  ---------------------------------------------------
   07/10/2005 17:15:00      1.200     0.504    0.0000
   07/10/2005 17:20:00      3.600     1.495    0.0000
   07/10/2005 17:25:00      7.200     2.893    0.0000
   07/10/2005 17:30:00     10.800     4.067    0.0015
   07/10/2005 17:35:00      6.000     2.056    0.0050
   07/10/2005 17:40:00      3.600     1.177    0.0094
   07/10/2005 17:45:00      2.400     0.785    0.0123
   07/10/2005 17:50:00      3.600     1.177    0.0141
   07/10/2005 17:55:00      3.600     1.177    0.0174
   07/10/2005 18:00:00      3.600     1.177    0.0208
   07/10/2005 18:05:00      8.400     2.747    0.0242
   07/10/2005 18:10:00     21.600     7.063    0.0350
   07/10/2005 18:15:00     12.000     3.924    0.0725
   07/10/2005 18:20:00     24.000     7.848    0.0914
   07/10/2005 18:25:00     24.000     7.848    0.1412
   07/10/2005 18:30:00      7.200     2.354    0.1914
   07/10/2005 18:35:00     18.000     5.886    0.1854
   07/10/2005 18:40:00      4.800     1.570    0.2141
   07/10/2005 18:45:00     10.800     3.532    0.1970
   07/10/2005 18:50:00     25.200     8.240    0.2015
   07/10/2005 18:55:00     28.800     9.418    0.2532
   07/10/2005 19:00:00     54.000    17.658    0.3135
   07/10/2005 19:05:00     21.600     7.063    0.4716
   07/10/2005 19:10:00     10.800     3.532    0.4696
   07/10/2005 19:15:00      2.400     0.785    0.4230
   07/10/2005 19:20:00      1.200     0.392    0.3540
   07/10/2005 19:25:00      0.000     0.000    0.2972
   07/10/2005 19:30:00      0.000     0.000    0.2492
   07/10/2005 19:35:00      1.200     0.392    0.2117
   07/10/2005 19:40:00      0.000     0.000    0.1855
   07/10/2005 19:45:00      0.000     0.000    0.1607
   07/10/2005 19:50:00      0.000     0.000    0.1406
   07/10/2005 19:55:00      1.200     0.392    0.1239
   07/10/2005 20:00:00      8.400     2.747    0.1131
   07/10/2005 20:05:00      7.200     2.354    0.1220
   07/10/2005 20:10:00      2.400     0.785    0.1269
   07/10/2005 20:15:00      1.200     0.392    0.1188
   07/10/2005 20:20:00      2.400     0.785    0.1089
   07/10/2005 20:25:00      3.600     1.177    0.1034
   07/10/2005 20:30:00      3.600     1.177    0.1015
   07/10/2005 20:35:00      2.400     0.785    0.0998
   07/10/2005 20:40:00      1.200     0.392    0.0955
   07/10/2005 20:45:00      1.200     0.392    0.0890
   07/10/2005 20:50:00      0.000     0.000    0.0834
   07/10/2005 20:55:00      1.200     0.392    0.0759
   07/10/2005 21:00:00      1.200     0.392    0.0720
   07/10/2005 21:05:00      1.200     0.392    0.0685
   07/10/2005 21:10:00      1.200     0.392    0.0654
   07/10/2005 21:15:00      0.000     0.000    0.0626
   07/10/2005 21:20:00      0.000     0.000    0.0579
   07/10/2005 21:25:00      0.000     0.000    0.0537
   07/10/2005 21:30:00      0.000     0.000    0.0500
   07/10/2005 21:35:00      0.000     0.000    0.0467
   07/10/2005 21:40:00      0.000     0.000    0.0437
   07/10/2005 21:45:00      0.000     0.000    0.0411
   07/10/2005 21:50:00      0.000     0.000    0.0387
   07/10/2005 21:55:00      0.000     0.000    0.0366
   07/10/2005 22:00:00      0.000     0.000    0.0346
   07/10/2005 22:05:00      0.000     0.000    0.0329
   07/10/2005 22:10:00      0.000     0.000    0.0313
  
  
  <<< Subcatchment S10 >>>
  ---------------------------------------------------
  Date        Time        Precip.    Losses    Runoff
                            mm/hr     mm/hr       CMS
  ---------------------------------------------------
   07/10/2005 17:15:00      1.200     0.441    0.0000
   07/10/2005 17:20:00      3.600     1.308    0.0000
   07/10/2005 17:25:00      7.200     2.532    0.0003
   07/10/2005 17:30:00     10.800     3.560    0.0013
   07/10/2005 17:35:00      6.000     1.800    0.0042
   07/10/2005 17:40:00      3.600     1.030    0.0073
   07/10/2005 17:45:00      2.400     0.687    0.0085
   07/10/2005 17:50:00      3.600     1.030    0.0086
   07/10/2005 17:55:00      3.600     1.030    0.0098
   07/10/2005 18:00:00      3.600     1.030    0.0108
   07/10/2005 18:05:00      8.400     2.404    0.0116
   07/10/2005 18:10:00     21.600     6.182    0.0171
   07/10/2005 18:15:00     12.000     3.434    0.0391
   07/10/2005 18:20:00     24.000     6.869    0.0422
   07/10/2005 18:25:00     24.000     6.869    0.0631
   07/10/2005 18:30:00      7.200     2.061    0.0772
   07/10/2005 18:35:00     18.000     5.152    0.0570
   07/10/2005 18:40:00      4.800     1.374    0.0634
   07/10/2005 18:45:00     10.800     3.091    0.0464
   07/10/2005 18:50:00     25.200     7.212    0.0457
   07/10/2005 18:55:00     28.800     8.243    0.0688
   07/10/2005 19:00:00     54.000    15.455    0.0911
   07/10/2005 19:05:00     21.600     6.182    0.1575
   07/10/2005 19:10:00     10.800     3.091    0.1249
   07/10/2005 19:15:00      2.400     0.687    0.0900
   07/10/2005 19:20:00      1.200     0.343    0.0593
   07/10/2005 19:25:00      0.000     0.000    0.0418
   07/10/2005 19:30:00      0.000     0.000    0.0303
   07/10/2005 19:35:00      1.200     0.343    0.0233
   07/10/2005 19:40:00      0.000     0.000    0.0199
   07/10/2005 19:45:00      0.000     0.000    0.0164
   07/10/2005 19:50:00      0.000     0.000    0.0139
   07/10/2005 19:55:00      1.200     0.343    0.0120
   07/10/2005 20:00:00      8.400     2.404    0.0115
   07/10/2005 20:05:00      7.200     2.061    0.0177
   07/10/2005 20:10:00      2.400     0.687    0.0222
   07/10/2005 20:15:00      1.200     0.343    0.0203
   07/10/2005 20:20:00      2.400     0.687    0.0177
   07/10/2005 20:25:00      3.600     1.030    0.0170
   07/10/2005 20:30:00      3.600     1.030    0.0177
   07/10/2005 20:35:00      2.400     0.687    0.0182
   07/10/2005 20:40:00      1.200     0.343    0.0173
   07/10/2005 20:45:00      1.200     0.343    0.0155
   07/10/2005 20:50:00      0.000     0.000    0.0141
   07/10/2005 20:55:00      1.200     0.343    0.0120
   07/10/2005 21:00:00      1.200     0.343    0.0115
   07/10/2005 21:05:00      1.200     0.343    0.0110
   07/10/2005 21:10:00      1.200     0.343    0.0106
   07/10/2005 21:15:00      0.000     0.000    0.0102
   07/10/2005 21:20:00      0.000     0.000    0.0090
   07/10/2005 21:25:00      0.000     0.000    0.0081
   07/10/2005 21:30:00      0.000     0.000    0.0073
   07/10/2005 21:35:00      0.000     0.000    0.0067
   07/10/2005 21:40:00      0.000     0.000    0.0061
   07/10/2005 21:45:00      0.000     0.000    0.0057
   07/10/2005 21:50:00      0.000     0.000    0.0053
   07/10/2005 21:55:00      0.000     0.000    0.0050
   07/10/2005 22:00:00      0.000     0.000    0.0047
   07/10/2005 22:05:00      0.000     0.000    0.0044
   07/10/2005 22:10:00      0.000     0.000    0.0042
  
  
  <<< Subcatchment S11 >>>
  ---------------------------------------------------
  Date        Time        Precip.    Losses    Runoff
                            mm/hr     mm/hr       CMS
  ---------------------------------------------------
   07/10/2005 17:15:00      1.200     0.452    0.0000
   07/10/2005 17:20:00      3.600     1.341    0.0000
   07/10/2005 17:25:00      7.200     2.595    0.0000
   07/10/2005 17:30:00     10.800     3.649    0.0024
   07/10/2005 17:35:00      6.000     1.845    0.0082
   07/10/2005 17:40:00      3.600     1.056    0.0146
   07/10/2005 17:45:00      2.400     0.704    0.0182
   07/10/2005 17:50:00      3.600     1.056    0.0196
   07/10/2005 17:55:00      3.600     1.056    0.0232
   07/10/2005 18:00:00      3.600     1.056    0.0265
   07/10/2005 18:05:00      8.400     2.465    0.0295
   07/10/2005 18:10:00     21.600     6.337    0.0429
   07/10/2005 18:15:00     12.000     3.521    0.0926
   07/10/2005 18:20:00     24.000     7.042    0.1082
   07/10/2005 18:25:00     24.000     7.042    0.1632
   07/10/2005 18:30:00      7.200     2.112    0.2086
   07/10/2005 18:35:00     18.000     5.281    0.1751
   07/10/2005 18:40:00      4.800     1.408    0.1941
   07/10/2005 18:45:00     10.800     3.169    0.1571
   07/10/2005 18:50:00     25.200     7.394    0.1539
   07/10/2005 18:55:00     28.800     8.450    0.2078
   07/10/2005 19:00:00     54.000    15.844    0.2656
   07/10/2005 19:05:00     21.600     6.337    0.4330
   07/10/2005 19:10:00     10.800     3.169    0.3836
   07/10/2005 19:15:00      2.400     0.704    0.3039
   07/10/2005 19:20:00      1.200     0.352    0.2207
   07/10/2005 19:25:00      0.000     0.000    0.1653
   07/10/2005 19:30:00      0.000     0.000    0.1255
   07/10/2005 19:35:00      1.200     0.352    0.0988
   07/10/2005 19:40:00      0.000     0.000    0.0835
   07/10/2005 19:45:00      0.000     0.000    0.0689
   07/10/2005 19:50:00      0.000     0.000    0.0582
   07/10/2005 19:55:00      1.200     0.352    0.0499
   07/10/2005 20:00:00      8.400     2.465    0.0462
   07/10/2005 20:05:00      7.200     2.112    0.0601
   07/10/2005 20:10:00      2.400     0.704    0.0697
   07/10/2005 20:15:00      1.200     0.352    0.0649
   07/10/2005 20:20:00      2.400     0.704    0.0582
   07/10/2005 20:25:00      3.600     1.056    0.0558
   07/10/2005 20:30:00      3.600     1.056    0.0568
   07/10/2005 20:35:00      2.400     0.704    0.0576
   07/10/2005 20:40:00      1.200     0.352    0.0553
   07/10/2005 20:45:00      1.200     0.352    0.0507
   07/10/2005 20:50:00      0.000     0.000    0.0469
   07/10/2005 20:55:00      1.200     0.352    0.0413
   07/10/2005 21:00:00      1.200     0.352    0.0392
   07/10/2005 21:05:00      1.200     0.352    0.0375
   07/10/2005 21:10:00      1.200     0.352    0.0360
   07/10/2005 21:15:00      0.000     0.000    0.0348
   07/10/2005 21:20:00      0.000     0.000    0.0314
   07/10/2005 21:25:00      0.000     0.000    0.0286
   07/10/2005 21:30:00      0.000     0.000    0.0263
   07/10/2005 21:35:00      0.000     0.000    0.0243
   07/10/2005 21:40:00      0.000     0.000    0.0226
   07/10/2005 21:45:00      0.000     0.000    0.0211
   07/10/2005 21:50:00      0.000     0.000    0.0198
   07/10/2005 21:55:00      0.000     0.000    0.0186
   07/10/2005 22:00:00      0.000     0.000    0.0176
   07/10/2005 22:05:00      0.000     0.000    0.0167
   07/10/2005 22:10:00      0.000     0.000    0.0159
  
  
  <<< Subcatchment S12 >>>
  ---------------------------------------------------
  Date        Time        Precip.    Losses    Runoff
                            mm/hr     mm/hr       CMS
  ---------------------------------------------------
   07/10/2005 17:15:00      1.200     0.208    0.0000
   07/10/2005 17:20:00      3.600     0.617    0.0000
   07/10/2005 17:25:00      7.200     1.194    0.0000
   07/10/2005 17:30:00     10.800     1.679    0.0015
   07/10/2005 17:35:00      6.000     0.849    0.0050
   07/10/2005 17:40:00      3.600     0.486    0.0094
   07/10/2005 17:45:00      2.400     0.324    0.0124
   07/10/2005 17:50:00      3.600     0.486    0.0143
   07/10/2005 17:55:00      3.600     0.486    0.0177
   07/10/2005 18:00:00      3.600     0.486    0.0212
   07/10/2005 18:05:00      8.400     1.134    0.0248
   07/10/2005 18:10:00     21.600     2.916    0.0358
   07/10/2005 18:15:00     12.000     1.620    0.0739
   07/10/2005 18:20:00     24.000     3.240    0.0936
   07/10/2005 18:25:00     24.000     3.240    0.1449
   07/10/2005 18:30:00      7.200     0.972    0.1973
   07/10/2005 18:35:00     18.000     2.430    0.1929
   07/10/2005 18:40:00      4.800     0.648    0.2237
   07/10/2005 18:45:00     10.800     1.458    0.2077
   07/10/2005 18:50:00     25.200     3.402    0.2135
   07/10/2005 18:55:00     28.800     3.888    0.2677
   07/10/2005 19:00:00     54.000     7.290    0.3313
   07/10/2005 19:05:00     21.600     2.916    0.4959
   07/10/2005 19:10:00     10.800     1.458    0.4976
   07/10/2005 19:15:00      2.400     0.324    0.4523
   07/10/2005 19:20:00      1.200     0.162    0.3826
   07/10/2005 19:25:00      0.000     0.000    0.3240
   07/10/2005 19:30:00      0.000     0.000    0.2738
   07/10/2005 19:35:00      1.200     0.162    0.2340
   07/10/2005 19:40:00      0.000     0.000    0.2059
   07/10/2005 19:45:00      0.000     0.000    0.1791
   07/10/2005 19:50:00      0.000     0.000    0.1571
   07/10/2005 19:55:00      1.200     0.162    0.1388
   07/10/2005 20:00:00      8.400     1.134    0.1266
   07/10/2005 20:05:00      7.200     0.972    0.1352
   07/10/2005 20:10:00      2.400     0.324    0.1397
   07/10/2005 20:15:00      1.200     0.162    0.1307
   07/10/2005 20:20:00      2.400     0.324    0.1197
   07/10/2005 20:25:00      3.600     0.486    0.1134
   07/10/2005 20:30:00      3.600     0.486    0.1108
   07/10/2005 20:35:00      2.400     0.324    0.1086
   07/10/2005 20:40:00      1.200     0.162    0.1036
   07/10/2005 20:45:00      1.200     0.162    0.0964
   07/10/2005 20:50:00      0.000     0.000    0.0901
   07/10/2005 20:55:00      1.200     0.162    0.0819
   07/10/2005 21:00:00      1.200     0.162    0.0773
   07/10/2005 21:05:00      1.200     0.162    0.0732
   07/10/2005 21:10:00      1.200     0.162    0.0696
   07/10/2005 21:15:00      0.000     0.000    0.0664
   07/10/2005 21:20:00      0.000     0.000    0.0611
   07/10/2005 21:25:00      0.000     0.000    0.0564
   07/10/2005 21:30:00      0.000     0.000    0.0522
   07/10/2005 21:35:00      0.000     0.000    0.0485
   07/10/2005 21:40:00      0.000     0.000    0.0451
   07/10/2005 21:45:00      0.000     0.000    0.0421
   07/10/2005 21:50:00      0.000     0.000    0.0394
   07/10/2005 21:55:00      0.000     0.000    0.0369
   07/10/2005 22:00:00      0.000     0.000    0.0347
   07/10/2005 22:05:00      0.000     0.000    0.0326
   07/10/2005 22:10:00      0.000     0.000    0.0308
  
  
  <<< Subcatchment S13 >>>
  ---------------------------------------------------
  Date        Time        Precip.    Losses    Runoff
                            mm/hr     mm/hr       CMS
  ---------------------------------------------------
   07/10/2005 17:15:00      1.200     0.196    0.0000
   07/10/2005 17:20:00      3.600     0.581    0.0000
   07/10/2005 17:25:00      7.200     1.125    0.0000
   07/10/2005 17:30:00     10.800     1.582    0.0018
   07/10/2005 17:35:00      6.000     0.800    0.0062
   07/10/2005 17:40:00      3.600     0.458    0.0116
   07/10/2005 17:45:00      2.400     0.305    0.0151
   07/10/2005 17:50:00      3.600     0.458    0.0172
   07/10/2005 17:55:00      3.600     0.458    0.0211
   07/10/2005 18:00:00      3.600     0.458    0.0251
   07/10/2005 18:05:00      8.400     1.068    0.0291
   07/10/2005 18:10:00     21.600     2.748    0.0420
   07/10/2005 18:15:00     12.000     1.526    0.0872
   07/10/2005 18:20:00     24.000     3.053    0.1091
   07/10/2005 18:25:00     24.000     3.053    0.1679
   07/10/2005 18:30:00      7.200     0.916    0.2258
   07/10/2005 18:35:00     18.000     2.290    0.2148
   07/10/2005 18:40:00      4.800     0.611    0.2462
   07/10/2005 18:45:00     10.800     1.374    0.2227
   07/10/2005 18:50:00     25.200     3.205    0.2258
   07/10/2005 18:55:00     28.800     3.663    0.2850
   07/10/2005 19:00:00     54.000     6.869    0.3536
   07/10/2005 19:05:00     21.600     2.748    0.5368
   07/10/2005 19:10:00     10.800     1.374    0.5263
   07/10/2005 19:15:00      2.400     0.305    0.4653
   07/10/2005 19:20:00      1.200     0.153    0.3813
   07/10/2005 19:25:00      0.000     0.000    0.3141
   07/10/2005 19:30:00      0.000     0.000    0.2587
   07/10/2005 19:35:00      1.200     0.153    0.2163
   07/10/2005 19:40:00      0.000     0.000    0.1874
   07/10/2005 19:45:00      0.000     0.000    0.1604
   07/10/2005 19:50:00      0.000     0.000    0.1386
   07/10/2005 19:55:00      1.200     0.153    0.1209
   07/10/2005 20:00:00      8.400     1.068    0.1096
   07/10/2005 20:05:00      7.200     0.916    0.1207
   07/10/2005 20:10:00      2.400     0.305    0.1271
   07/10/2005 20:15:00      1.200     0.153    0.1184
   07/10/2005 20:20:00      2.400     0.305    0.1076
   07/10/2005 20:25:00      3.600     0.458    0.1018
   07/10/2005 20:30:00      3.600     0.458    0.1001
   07/10/2005 20:35:00      2.400     0.305    0.0986
   07/10/2005 20:40:00      1.200     0.153    0.0940
   07/10/2005 20:45:00      1.200     0.153    0.0870
   07/10/2005 20:50:00      0.000     0.000    0.0809
   07/10/2005 20:55:00      1.200     0.153    0.0727
   07/10/2005 21:00:00      1.200     0.153    0.0685
   07/10/2005 21:05:00      1.200     0.153    0.0648
   07/10/2005 21:10:00      1.200     0.153    0.0615
   07/10/2005 21:15:00      0.000     0.000    0.0586
   07/10/2005 21:20:00      0.000     0.000    0.0535
   07/10/2005 21:25:00      0.000     0.000    0.0490
   07/10/2005 21:30:00      0.000     0.000    0.0450
   07/10/2005 21:35:00      0.000     0.000    0.0415
   07/10/2005 21:40:00      0.000     0.000    0.0384
   07/10/2005 21:45:00      0.000     0.000    0.0356
   07/10/2005 21:50:00      0.000     0.000    0.0331
   07/10/2005 21:55:00      0.000     0.000    0.0309
   07/10/2005 22:00:00      0.000     0.000    0.0289
   07/10/2005 22:05:00      0.000     0.000    0.0271
   07/10/2005 22:10:00      0.000     0.000    0.0254
  
  
  <<< Subcatchment S14 >>>
  ---------------------------------------------------
  Date        Time        Precip.    Losses    Runoff
                            mm/hr     mm/hr       CMS
  ---------------------------------------------------
   07/10/2005 17:15:00      1.200     0.390    0.0000
   07/10/2005 17:20:00      3.600     1.157    0.0000
   07/10/2005 17:25:00      7.200     2.240    0.0000
   07/10/2005 17:30:00     10.800     3.149    0.0015
   07/10/2005 17:35:00      6.000     1.592    0.0050
   07/10/2005 17:40:00      3.600     0.912    0.0093
   07/10/2005 17:45:00      2.400     0.608    0.0122
   07/10/2005 17:50:00      3.600     0.912    0.0139
   07/10/2005 17:55:00      3.600     0.912    0.0171
   07/10/2005 18:00:00      3.600     0.912    0.0203
   07/10/2005 18:05:00      8.400     2.127    0.0236
   07/10/2005 18:10:00     21.600     5.469    0.0340
   07/10/2005 18:15:00     12.000     3.038    0.0706
   07/10/2005 18:20:00     24.000     6.077    0.0885
   07/10/2005 18:25:00     24.000     6.077    0.1364
   07/10/2005 18:30:00      7.200     1.823    0.1839
   07/10/2005 18:35:00     18.000     4.558    0.1759
   07/10/2005 18:40:00      4.800     1.215    0.2021
   07/10/2005 18:45:00     10.800     2.735    0.1837
   07/10/2005 18:50:00     25.200     6.381    0.1868
   07/10/2005 18:55:00     28.800     7.292    0.2355
   07/10/2005 19:00:00     54.000    13.673    0.2919
   07/10/2005 19:05:00     21.600     5.469    0.4419
   07/10/2005 19:10:00     10.800     2.735    0.4355
   07/10/2005 19:15:00      2.400     0.608    0.3874
   07/10/2005 19:20:00      1.200     0.304    0.3196
   07/10/2005 19:25:00      0.000     0.000    0.2650
   07/10/2005 19:30:00      0.000     0.000    0.2197
   07/10/2005 19:35:00      1.200     0.304    0.1848
   07/10/2005 19:40:00      0.000     0.000    0.1608
   07/10/2005 19:45:00      0.000     0.000    0.1383
   07/10/2005 19:50:00      0.000     0.000    0.1202
   07/10/2005 19:55:00      1.200     0.304    0.1053
   07/10/2005 20:00:00      8.400     2.127    0.0959
   07/10/2005 20:05:00      7.200     1.823    0.1049
   07/10/2005 20:10:00      2.400     0.608    0.1100
   07/10/2005 20:15:00      1.200     0.304    0.1028
   07/10/2005 20:20:00      2.400     0.608    0.0939
   07/10/2005 20:25:00      3.600     0.912    0.0891
   07/10/2005 20:30:00      3.600     0.912    0.0876
   07/10/2005 20:35:00      2.400     0.608    0.0864
   07/10/2005 20:40:00      1.200     0.304    0.0826
   07/10/2005 20:45:00      1.200     0.304    0.0768
   07/10/2005 20:50:00      0.000     0.000    0.0718
   07/10/2005 20:55:00      1.200     0.304    0.0650
   07/10/2005 21:00:00      1.200     0.304    0.0615
   07/10/2005 21:05:00      1.200     0.304    0.0584
   07/10/2005 21:10:00      1.200     0.304    0.0557
   07/10/2005 21:15:00      0.000     0.000    0.0533
   07/10/2005 21:20:00      0.000     0.000    0.0491
   07/10/2005 21:25:00      0.000     0.000    0.0453
   07/10/2005 21:30:00      0.000     0.000    0.0420
   07/10/2005 21:35:00      0.000     0.000    0.0391
   07/10/2005 21:40:00      0.000     0.000    0.0365
   07/10/2005 21:45:00      0.000     0.000    0.0342
   07/10/2005 21:50:00      0.000     0.000    0.0321
   07/10/2005 21:55:00      0.000     0.000    0.0302
   07/10/2005 22:00:00      0.000     0.000    0.0285
   07/10/2005 22:05:00      0.000     0.000    0.0270
   07/10/2005 22:10:00      0.000     0.000    0.0256
  
  
  <<< Subcatchment S15 >>>
  ---------------------------------------------------
  Date        Time        Precip.    Losses    Runoff
                            mm/hr     mm/hr       CMS
  ---------------------------------------------------
   07/10/2005 17:15:00      1.200     0.310    0.0000
   07/10/2005 17:20:00      3.600     0.919    0.0000
   07/10/2005 17:25:00      7.200     1.778    0.0000
   07/10/2005 17:30:00     10.800     2.500    0.0014
   07/10/2005 17:35:00      6.000     1.264    0.0050
   07/10/2005 17:40:00      3.600     0.724    0.0092
   07/10/2005 17:45:00      2.400     0.482    0.0120
   07/10/2005 17:50:00      3.600     0.724    0.0136
   07/10/2005 17:55:00      3.600     0.724    0.0167
   07/10/2005 18:00:00      3.600     0.724    0.0198
   07/10/2005 18:05:00      8.400     1.688    0.0228
   07/10/2005 18:10:00     21.600     4.342    0.0330
   07/10/2005 18:15:00     12.000     2.412    0.0686
   07/10/2005 18:20:00     24.000     4.824    0.0854
   07/10/2005 18:25:00     24.000     4.824    0.1313
   07/10/2005 18:30:00      7.200     1.447    0.1759
   07/10/2005 18:35:00     18.000     3.618    0.1660
   07/10/2005 18:40:00      4.800     0.965    0.1897
   07/10/2005 18:45:00     10.800     2.171    0.1702
   07/10/2005 18:50:00     25.200     5.065    0.1720
   07/10/2005 18:55:00     28.800     5.789    0.2177
   07/10/2005 19:00:00     54.000    10.854    0.2704
   07/10/2005 19:05:00     21.600     4.342    0.4124
   07/10/2005 19:10:00     10.800     2.171    0.4018
   07/10/2005 19:15:00      2.400     0.482    0.3526
   07/10/2005 19:20:00      1.200     0.241    0.2865
   07/10/2005 19:25:00      0.000     0.000    0.2344
   07/10/2005 19:30:00      0.000     0.000    0.1920
   07/10/2005 19:35:00      1.200     0.241    0.1598
   07/10/2005 19:40:00      0.000     0.000    0.1381
   07/10/2005 19:45:00      0.000     0.000    0.1179
   07/10/2005 19:50:00      0.000     0.000    0.1017
   07/10/2005 19:55:00      1.200     0.241    0.0887
   07/10/2005 20:00:00      8.400     1.688    0.0805
   07/10/2005 20:05:00      7.200     1.447    0.0895
   07/10/2005 20:10:00      2.400     0.482    0.0948
   07/10/2005 20:15:00      1.200     0.241    0.0884
   07/10/2005 20:20:00      2.400     0.482    0.0804
   07/10/2005 20:25:00      3.600     0.724    0.0763
   07/10/2005 20:30:00      3.600     0.724    0.0752
   07/10/2005 20:35:00      2.400     0.482    0.0743
   07/10/2005 20:40:00      1.200     0.241    0.0710
   07/10/2005 20:45:00      1.200     0.241    0.0658
   07/10/2005 20:50:00      0.000     0.000    0.0613
   07/10/2005 20:55:00      1.200     0.241    0.0552
   07/10/2005 21:00:00      1.200     0.241    0.0521
   07/10/2005 21:05:00      1.200     0.241    0.0495
   07/10/2005 21:10:00      1.200     0.241    0.0471
   07/10/2005 21:15:00      0.000     0.000    0.0450
   07/10/2005 21:20:00      0.000     0.000    0.0412
   07/10/2005 21:25:00      0.000     0.000    0.0379
   07/10/2005 21:30:00      0.000     0.000    0.0349
   07/10/2005 21:35:00      0.000     0.000    0.0323
   07/10/2005 21:40:00      0.000     0.000    0.0300
   07/10/2005 21:45:00      0.000     0.000    0.0280
   07/10/2005 21:50:00      0.000     0.000    0.0262
   07/10/2005 21:55:00      0.000     0.000    0.0245
   07/10/2005 22:00:00      0.000     0.000    0.0231
   07/10/2005 22:05:00      0.000     0.000    0.0217
   07/10/2005 22:10:00      0.000     0.000    0.0205
  
  
  ************
  Node Results
  ************
  
  <<< Node J0 >>>
  ----------------------------------------------------------------
                           Inflow  Flooding     Depth      Head
  Date        Time            CMS       CMS    meters    meters
  ----------------------------------------------------------------
   07/10/2005 17:15:00      0.000     0.000     0.011    31.001
   07/10/2005 17:20:00      0.000     0.000     0.006    30.996
   07/10/2005 17:25:00      0.000     0.000     0.005    30.995
   07/10/2005 17:30:00      0.001     0.000     0.012    31.002
   07/10/2005 17:35:00      0.005     0.000     0.024    31.014
   07/10/2005 17:40:00      0.009     0.000     0.035    31.025
   07/10/2005 17:45:00      0.012     0.000     0.040    31.030
[...]
   07/10/2005 17:55:00      0.034     0.801     0.070     0.006
   07/10/2005 18:00:00      0.045     0.858     0.080     0.007
   07/10/2005 18:05:00      0.055     0.907     0.089     0.009
   07/10/2005 18:10:00      0.067     0.955     0.098     0.010
   07/10/2005 18:15:00      0.095     1.053     0.116     0.013
   07/10/2005 18:20:00      0.172     1.265     0.152     0.019
   07/10/2005 18:25:00      0.261     1.434     0.186     0.026
   07/10/2005 18:30:00      0.391     1.616     0.225     0.034
   07/10/2005 18:35:00      0.501     1.752     0.252     0.040
   07/10/2005 18:40:00      0.511     1.741     0.257     0.042
   07/10/2005 18:45:00      0.527     1.758     0.260     0.042
   07/10/2005 18:50:00      0.495     1.715     0.254     0.041
   07/10/2005 18:55:00      0.511     1.725     0.258     0.042
   07/10/2005 19:00:00      0.630     1.844     0.285     0.048
   07/10/2005 19:05:00      0.861     2.013     0.332     0.061
   07/10/2005 19:10:00      1.168     2.246     0.380     0.074
   07/10/2005 19:15:00      1.113     2.196     0.373     0.072
   07/10/2005 19:20:00      0.950     2.085     0.347     0.064
   07/10/2005 19:25:00      0.767     1.946     0.314     0.056
   07/10/2005 19:30:00      0.623     1.823     0.285     0.048
   07/10/2005 19:35:00      0.511     1.714     0.260     0.042
   07/10/2005 19:40:00      0.428     1.629     0.239     0.037
   07/10/2005 19:45:00      0.367     1.547     0.222     0.034
   07/10/2005 19:50:00      0.316     1.477     0.207     0.030
   07/10/2005 19:55:00      0.273     1.414     0.193     0.027
   07/10/2005 20:00:00      0.241     1.366     0.182     0.025
   07/10/2005 20:05:00      0.224     1.333     0.177     0.024
   07/10/2005 20:10:00      0.234     1.357     0.180     0.024
   07/10/2005 20:15:00      0.249     1.389     0.184     0.025
   07/10/2005 20:20:00      0.245     1.386     0.182     0.025
   07/10/2005 20:25:00      0.229     1.357     0.177     0.024
   07/10/2005 20:30:00      0.217     1.330     0.172     0.023
   07/10/2005 20:35:00      0.211     1.321     0.170     0.023
   07/10/2005 20:40:00      0.208     1.317     0.169     0.022
   07/10/2005 20:45:00      0.201     1.304     0.166     0.022
   07/10/2005 20:50:00      0.190     1.280     0.161     0.021
   07/10/2005 20:55:00      0.177     1.251     0.156     0.020
   07/10/2005 21:00:00      0.162     1.218     0.150     0.019
   07/10/2005 21:05:00      0.151     1.192     0.145     0.018
   07/10/2005 21:10:00      0.143     1.172     0.141     0.017
   07/10/2005 21:15:00      0.136     1.156     0.138     0.017
   07/10/2005 21:20:00      0.130     1.141     0.135     0.016
   07/10/2005 21:25:00      0.121     1.120     0.130     0.015
   07/10/2005 21:30:00      0.112     1.095     0.126     0.015
   07/10/2005 21:35:00      0.104     1.072     0.122     0.014
   07/10/2005 21:40:00      0.097     1.051     0.118     0.013
   07/10/2005 21:45:00      0.090     1.028     0.114     0.012
   07/10/2005 21:50:00      0.084     1.007     0.110     0.012
   07/10/2005 21:55:00      0.079     0.988     0.107     0.011
   07/10/2005 22:00:00      0.074     0.971     0.104     0.011
   07/10/2005 22:05:00      0.070     0.954     0.101     0.010
   07/10/2005 22:10:00      0.066     0.939     0.098     0.010
  
  
  <<< Link C21 >>>
  ----------------------------------------------------------------
                             Flow  Velocity     Depth  Capacity/
  Date        Time            CMS     m/sec    meters   Setting 
  ----------------------------------------------------------------
   07/10/2005 17:15:00      0.000     0.000     0.000     0.000
   07/10/2005 17:20:00      0.000     0.000     0.001     0.000
   07/10/2005 17:25:00      0.000     0.398     0.004     0.001
   07/10/2005 17:30:00      0.001     0.607     0.010     0.002
   07/10/2005 17:35:00      0.003     0.928     0.020     0.005
   07/10/2005 17:40:00      0.008     1.050     0.032     0.010
   07/10/2005 17:45:00      0.011     0.961     0.043     0.015
   07/10/2005 17:50:00      0.013     0.833     0.052     0.020
   07/10/2005 17:55:00      0.016     0.819     0.060     0.025
   07/10/2005 18:00:00      0.019     0.833     0.067     0.029
   07/10/2005 18:05:00      0.022     0.856     0.073     0.033
   07/10/2005 18:10:00      0.030     1.002     0.082     0.039
   07/10/2005 18:15:00      0.061     1.399     0.104     0.055
   07/10/2005 18:20:00      0.082     1.381     0.129     0.076
   07/10/2005 18:25:00      0.122     1.546     0.157     0.101
   07/10/2005 18:30:00      0.168     1.658     0.187     0.129
   07/10/2005 18:35:00      0.168     1.516     0.199     0.141
   07/10/2005 18:40:00      0.185     1.617     0.204     0.146
   07/10/2005 18:45:00      0.174     1.528     0.202     0.145
   07/10/2005 18:50:00      0.172     1.553     0.198     0.141
   07/10/2005 18:55:00      0.211     1.767     0.209     0.152
   07/10/2005 19:00:00      0.262     1.898     0.232     0.176
   07/10/2005 19:05:00      0.392     2.217     0.277     0.225
   07/10/2005 19:10:00      0.403     2.031     0.300     0.253
   07/10/2005 19:15:00      0.360     1.912     0.289     0.239
   07/10/2005 19:20:00      0.296     1.774     0.265     0.212
   07/10/2005 19:25:00      0.243     1.677     0.240     0.184
   07/10/2005 19:30:00      0.199     1.582     0.217     0.160
   07/10/2005 19:35:00      0.166     1.499     0.198     0.141
   07/10/2005 19:40:00      0.142     1.441     0.183     0.126
   07/10/2005 19:45:00      0.122     1.374     0.170     0.113
   07/10/2005 19:50:00      0.105     1.314     0.158     0.102
   07/10/2005 19:55:00      0.091     1.258     0.148     0.093
   07/10/2005 20:00:00      0.082     1.227     0.140     0.085
   07/10/2005 20:05:00      0.088     1.320     0.139     0.084
   07/10/2005 20:10:00      0.094     1.359     0.143     0.088
   07/10/2005 20:15:00      0.090     1.286     0.144     0.089
   07/10/2005 20:20:00      0.082     1.216     0.141     0.086
   07/10/2005 20:25:00      0.077     1.194     0.137     0.082
   07/10/2005 20:30:00      0.075     1.201     0.134     0.080
   07/10/2005 20:35:00      0.075     1.203     0.133     0.079
   07/10/2005 20:40:00      0.072     1.179     0.131     0.078
   07/10/2005 20:45:00      0.067     1.138     0.128     0.075
   07/10/2005 20:50:00      0.062     1.108     0.124     0.072
   07/10/2005 20:55:00      0.057     1.066     0.120     0.068
   07/10/2005 21:00:00      0.053     1.048     0.115     0.064
   07/10/2005 21:05:00      0.050     1.037     0.112     0.062
   07/10/2005 21:10:00      0.048     1.023     0.109     0.059
   07/10/2005 21:15:00      0.046     1.010     0.107     0.057
   07/10/2005 21:20:00      0.042     0.975     0.104     0.055
   07/10/2005 21:25:00      0.039     0.943     0.100     0.052
   07/10/2005 21:30:00      0.036     0.915     0.097     0.050
   07/10/2005 21:35:00      0.033     0.890     0.093     0.047
   07/10/2005 21:40:00      0.031     0.868     0.090     0.045
   07/10/2005 21:45:00      0.029     0.849     0.087     0.043
   07/10/2005 21:50:00      0.027     0.832     0.085     0.041
   07/10/2005 21:55:00      0.025     0.817     0.082     0.039
   07/10/2005 22:00:00      0.023     0.803     0.080     0.037
   07/10/2005 22:05:00      0.022     0.786     0.078     0.036
   07/10/2005 22:10:00      0.021     0.770     0.076     0.034
  
  
  <<< Link C23 >>>
  ----------------------------------------------------------------
                             Flow  Velocity     Depth  Capacity/
  Date        Time            CMS     m/sec    meters   Setting 
  ----------------------------------------------------------------
   07/10/2005 17:15:00      0.068     1.002     0.090     0.007
   07/10/2005 17:20:00      0.059     1.002     0.082     0.006
   07/10/2005 17:25:00      0.044     0.984     0.069     0.004
   07/10/2005 17:30:00      0.033     0.937     0.057     0.003
   07/10/2005 17:35:00      0.025     0.887     0.049     0.003
   07/10/2005 17:40:00      0.022     0.867     0.046     0.003
   07/10/2005 17:45:00      0.028     0.903     0.052     0.003
   07/10/2005 17:50:00      0.049     0.988     0.073     0.005
   07/10/2005 17:55:00      0.091     1.005     0.109     0.009
   07/10/2005 18:00:00      0.141     1.039     0.144     0.013
   07/10/2005 18:05:00      0.189     1.128     0.164     0.016
   07/10/2005 18:10:00      0.236     1.207     0.182     0.019
   07/10/2005 18:15:00      0.308     1.310     0.207     0.023
   07/10/2005 18:20:00      0.510     1.514     0.264     0.033
   07/10/2005 18:25:00      0.869     1.792     0.338     0.048
   07/10/2005 18:30:00      1.360     2.043     0.420     0.065
   07/10/2005 18:35:00      1.937     2.285     0.496     0.083
   07/10/2005 18:40:00      2.154     2.383     0.519     0.089
   07/10/2005 18:45:00      2.237     2.410     0.528     0.091
   07/10/2005 18:50:00      2.173     2.392     0.520     0.089
   07/10/2005 18:55:00      2.138     2.376     0.517     0.088
   07/10/2005 19:00:00      2.482     2.461     0.559     0.099
   07/10/2005 19:05:00      3.262     2.653     0.642     0.121
   07/10/2005 19:10:00      4.675     2.959     0.765     0.155
   07/10/2005 19:15:00      4.918     3.040     0.778     0.159
   07/10/2005 19:20:00      4.333     2.931     0.730     0.145
   07/10/2005 19:25:00      3.591     2.774     0.665     0.127
   07/10/2005 19:30:00      2.942     2.616     0.603     0.110
   07/10/2005 19:35:00      2.431     2.470     0.550     0.097
   07/10/2005 19:40:00      2.031     2.346     0.504     0.085
   07/10/2005 19:45:00      1.741     2.236     0.468     0.077
   07/10/2005 19:50:00      1.506     2.146     0.436     0.069
   07/10/2005 19:55:00      1.309     2.052     0.408     0.063
   07/10/2005 20:00:00      1.147     1.973     0.383     0.057
   07/10/2005 20:05:00      1.040     1.929     0.364     0.053
   07/10/2005 20:10:00      1.024     1.914     0.362     0.053
   07/10/2005 20:15:00      1.076     1.938     0.371     0.055
   07/10/2005 20:20:00      1.089     1.949     0.373     0.055
   07/10/2005 20:25:00      1.039     1.928     0.364     0.053
   07/10/2005 20:30:00      0.978     1.894     0.353     0.051
   07/10/2005 20:35:00      0.939     1.868     0.347     0.049
   07/10/2005 20:40:00      0.918     1.855     0.343     0.049
   07/10/2005 20:45:00      0.894     1.840     0.339     0.048
   07/10/2005 20:50:00      0.853     1.814     0.331     0.046
   07/10/2005 20:55:00      0.800     1.778     0.321     0.044
   07/10/2005 21:00:00      0.738     1.728     0.310     0.042
   07/10/2005 21:05:00      0.684     1.686     0.300     0.040
   07/10/2005 21:10:00      0.641     1.656     0.291     0.038
   07/10/2005 21:15:00      0.609     1.630     0.284     0.037
   07/10/2005 21:20:00      0.579     1.603     0.277     0.035
   07/10/2005 21:25:00      0.546     1.574     0.270     0.034
   07/10/2005 21:30:00      0.509     1.539     0.261     0.033
   07/10/2005 21:35:00      0.472     1.503     0.252     0.031
   07/10/2005 21:40:00      0.437     1.469     0.243     0.029
   07/10/2005 21:45:00      0.406     1.437     0.234     0.028
   07/10/2005 21:50:00      0.378     1.408     0.227     0.026
   07/10/2005 21:55:00      0.353     1.381     0.220     0.025
   07/10/2005 22:00:00      0.331     1.355     0.213     0.024
   07/10/2005 22:05:00      0.312     1.327     0.207     0.023
   07/10/2005 22:10:00      0.294     1.301     0.201     0.022
  
  
  <<< Link C24 >>>
  ----------------------------------------------------------------
                             Flow  Velocity     Depth  Capacity/
  Date        Time            CMS     m/sec    meters   Setting 
  ----------------------------------------------------------------
   07/10/2005 17:15:00      0.000     0.000     0.000     0.000
   07/10/2005 17:20:00      0.000     0.000     0.001     0.000
   07/10/2005 17:25:00      0.000     0.180     0.004     0.001
   07/10/2005 17:30:00      0.001     0.382     0.010     0.002
   07/10/2005 17:35:00      0.003     0.588     0.022     0.005
   07/10/2005 17:40:00      0.007     0.701     0.038     0.011
   07/10/2005 17:45:00      0.011     0.717     0.050     0.016
   07/10/2005 17:50:00      0.013     0.712     0.056     0.020
   07/10/2005 17:55:00      0.016     0.745     0.062     0.022
   07/10/2005 18:00:00      0.019     0.797     0.067     0.025
   07/10/2005 18:05:00      0.022     0.837     0.072     0.028
   07/10/2005 18:10:00      0.030     0.939     0.082     0.034
   07/10/2005 18:15:00      0.059     1.193     0.110     0.052
   07/10/2005 18:20:00      0.084     1.275     0.133     0.069
   07/10/2005 18:25:00      0.123     1.453     0.159     0.089
   07/10/2005 18:30:00      0.172     1.608     0.187     0.113
   07/10/2005 18:35:00      0.178     1.606     0.191     0.117
   07/10/2005 18:40:00      0.196     1.694     0.197     0.122
   07/10/2005 18:45:00      0.188     1.669     0.194     0.119
   07/10/2005 18:50:00      0.186     1.690     0.190     0.116
   07/10/2005 18:55:00      0.225     1.813     0.207     0.130
   07/10/2005 19:00:00      0.280     1.922     0.232     0.153
   07/10/2005 19:05:00      0.413     2.160     0.281     0.201
   07/10/2005 19:10:00      0.436     2.163     0.292     0.212
   07/10/2005 19:15:00      0.396     2.121     0.276     0.197
   07/10/2005 19:20:00      0.333     2.033     0.251     0.172
   07/10/2005 19:25:00      0.276     1.943     0.228     0.150
   07/10/2005 19:30:00      0.230     1.847     0.207     0.131
   07/10/2005 19:35:00      0.193     1.763     0.190     0.115
   07/10/2005 19:40:00      0.167     1.696     0.176     0.103
   07/10/2005 19:45:00      0.144     1.623     0.164     0.093
   07/10/2005 19:50:00      0.125     1.556     0.153     0.085
   07/10/2005 19:55:00      0.109     1.491     0.144     0.077
   07/10/2005 20:00:00      0.099     1.445     0.137     0.072
   07/10/2005 20:05:00      0.102     1.473     0.138     0.073
   07/10/2005 20:10:00      0.109     1.486     0.144     0.077
   07/10/2005 20:15:00      0.105     1.445     0.143     0.076
   07/10/2005 20:20:00      0.096     1.399     0.138     0.073
   07/10/2005 20:25:00      0.090     1.375     0.134     0.069
   07/10/2005 20:30:00      0.088     1.368     0.132     0.068
   07/10/2005 20:35:00      0.087     1.359     0.131     0.067
   07/10/2005 20:40:00      0.084     1.338     0.129     0.066
   07/10/2005 20:45:00      0.079     1.306     0.125     0.063
   07/10/2005 20:50:00      0.073     1.278     0.121     0.060
   07/10/2005 20:55:00      0.067     1.242     0.117     0.057
   07/10/2005 21:00:00      0.063     1.221     0.112     0.054
   07/10/2005 21:05:00      0.059     1.205     0.110     0.052
   07/10/2005 21:10:00      0.057     1.187     0.107     0.050
   07/10/2005 21:15:00      0.054     1.169     0.105     0.049
   07/10/2005 21:20:00      0.051     1.139     0.102     0.047
   07/10/2005 21:25:00      0.047     1.110     0.098     0.044
   07/10/2005 21:30:00      0.043     1.085     0.095     0.042
   07/10/2005 21:35:00      0.040     1.064     0.091     0.040
   07/10/2005 21:40:00      0.037     1.043     0.088     0.038
   07/10/2005 21:45:00      0.035     1.021     0.086     0.036
   07/10/2005 21:50:00      0.033     0.999     0.083     0.035
   07/10/2005 21:55:00      0.031     0.979     0.081     0.033
   07/10/2005 22:00:00      0.029     0.960     0.079     0.032
   07/10/2005 22:05:00      0.028     0.942     0.077     0.031
   07/10/2005 22:10:00      0.026     0.926     0.075     0.030
  
  
  <<< Link C22 >>>
  ----------------------------------------------------------------
                             Flow  Velocity     Depth  Capacity/
  Date        Time            CMS     m/sec    meters   Setting 
  ----------------------------------------------------------------
   07/10/2005 17:15:00      0.000     0.000     0.036     0.007
   07/10/2005 17:20:00      0.000     0.000     0.029     0.005
   07/10/2005 17:25:00      0.000     0.007     0.024     0.004
   07/10/2005 17:30:00      0.000     0.067     0.023     0.003
   07/10/2005 17:35:00      0.002     0.310     0.026     0.004
   07/10/2005 17:40:00      0.006     0.633     0.034     0.006
   07/10/2005 17:45:00      0.010     0.754     0.043     0.009
   07/10/2005 17:50:00      0.013     0.753     0.051     0.012
   07/10/2005 17:55:00      0.016     0.723     0.058     0.014
   07/10/2005 18:00:00      0.019     0.739     0.065     0.017
   07/10/2005 18:05:00      0.023     0.766     0.071     0.019
   07/10/2005 18:10:00      0.030     0.872     0.080     0.023
   07/10/2005 18:15:00      0.059     1.174     0.101     0.032
   07/10/2005 18:20:00      0.085     1.245     0.126     0.045
   07/10/2005 18:25:00      0.126     1.378     0.153     0.059
   07/10/2005 18:30:00      0.177     1.497     0.183     0.077
   07/10/2005 18:35:00      0.187     1.426     0.196     0.085
   07/10/2005 18:40:00      0.206     1.503     0.202     0.089
   07/10/2005 18:45:00      0.202     1.470     0.202     0.089
   07/10/2005 18:50:00      0.200     1.497     0.199     0.087
   07/10/2005 18:55:00      0.240     1.668     0.209     0.094
   07/10/2005 19:00:00      0.299     1.795     0.231     0.108
   07/10/2005 19:05:00      0.437     2.057     0.274     0.138
   07/10/2005 19:10:00      0.470     1.953     0.299     0.156
   07/10/2005 19:15:00      0.433     1.878     0.290     0.150
   07/10/2005 19:20:00      0.369     1.796     0.268     0.134
   07/10/2005 19:25:00      0.311     1.731     0.243     0.117
   07/10/2005 19:30:00      0.261     1.664     0.222     0.102
   07/10/2005 19:35:00      0.222     1.606     0.203     0.090
   07/10/2005 19:40:00      0.193     1.563     0.188     0.080
   07/10/2005 19:45:00      0.168     1.507     0.175     0.072
   07/10/2005 19:50:00      0.147     1.456     0.163     0.065
   07/10/2005 19:55:00      0.129     1.410     0.153     0.059
   07/10/2005 20:00:00      0.116     1.382     0.145     0.055
   07/10/2005 20:05:00      0.119     1.439     0.143     0.054
   07/10/2005 20:10:00      0.125     1.467     0.146     0.056
   07/10/2005 20:15:00      0.121     1.408     0.147     0.056
   07/10/2005 20:20:00      0.112     1.343     0.144     0.054
   07/10/2005 20:25:00      0.105     1.317     0.140     0.052
   07/10/2005 20:30:00      0.102     1.315     0.137     0.050
   07/10/2005 20:35:00      0.100     1.312     0.135     0.050
   07/10/2005 20:40:00      0.097     1.290     0.134     0.049
   07/10/2005 20:45:00      0.091     1.253     0.131     0.047
   07/10/2005 20:50:00      0.085     1.222     0.127     0.045
   07/10/2005 20:55:00      0.078     1.186     0.123     0.043
   07/10/2005 21:00:00      0.073     1.167     0.118     0.041
   07/10/2005 21:05:00      0.070     1.159     0.115     0.039
   07/10/2005 21:10:00      0.066     1.149     0.112     0.038
   07/10/2005 21:15:00      0.064     1.135     0.110     0.036
   07/10/2005 21:20:00      0.060     1.106     0.107     0.035
   07/10/2005 21:25:00      0.055     1.074     0.103     0.033
   07/10/2005 21:30:00      0.051     1.050     0.100     0.032
   07/10/2005 21:35:00      0.048     1.031     0.096     0.030
   07/10/2005 21:40:00      0.045     1.014     0.093     0.029
   07/10/2005 21:45:00      0.042     0.999     0.090     0.027
   07/10/2005 21:50:00      0.040     0.986     0.088     0.026
   07/10/2005 21:55:00      0.037     0.976     0.085     0.025
   07/10/2005 22:00:00      0.035     0.962     0.083     0.024
   07/10/2005 22:05:00      0.034     0.947     0.080     0.023
   07/10/2005 22:10:00      0.032     0.933     0.078     0.022
  

  Analysis begun on:  Wed Mar 27 11:24:14 2019
  Analysis ended on:  Wed Mar 27 11:24:14 2019
  Total elapsed time: < 1 sec