
  EPA STORM WATER MANAGEMENT MODEL - VERSION 5.1 (Build 5.1.012)
  --------------------------------------------------------------

  
  *************
  Element Count
  *************
  Number of rain gages ...... 1
  Number of subcatchments ... 15
  Number of nodes ........... 25
  Number of links ........... 24
  Number of pollutants ...... 0
  Number of land uses ....... 0
  
  
  ****************
  Raingage Summary
  ****************
                                                      Data       Recording
  Name                 Data Source                    Type       Interval 
  ------------------------------------------------------------------------
  1                    20050710                       VOLUME       5 min.
  
  
  ********************
  Subcatchment Summary
  ********************
  Name                       Area     Width   %Imperv    %Slope Rain Gage            Outlet              
  -----------------------------------------------------------------------------------------------------------
  S1                         2.21    400.00     96.80    0.0500 1                    J1                  
  S2                         7.25    400.00     63.50    0.0500 1                    J0                  
  S3                         1.53    400.00     42.80    0.0500 1                    J4                  
  S4                         6.18    400.00     37.40    0.0500 1                    J8                  
  S5                         9.28    400.00     37.30    0.0500 1                    J7                  
  S6                         6.98    400.00     72.50    0.0500 1                    J5                  
  S7                         3.28    400.00     58.60    0.0500 1                    J25                 
  S8                        10.68    400.00     89.90    0.0500 1                    J11                 
  S9                        16.43    400.00     45.50    0.0500 1                    J14                 
  S10                        2.73    400.00     52.30    0.0500 1                    J9                  
  S11                        9.27    700.00     51.10    0.0500 1                    J10                 
  S12                       10.58    400.00     77.50    0.0500 1                    J17                 
  S13                       10.08    500.00     78.80    0.0500 1                    J24                 
  S14                       11.53    400.00     57.80    0.0500 1                    J15                 
  S15                        8.92    400.00     66.50    0.0500 1                    J23                 
  
  
  ************
  Node Summary
  ************
                                           Invert      Max.    Ponded    External
  Name                 Type                 Elev.     Depth      Area    Inflow  
  -------------------------------------------------------------------------------
  J0                   JUNCTION             30.99      4.00       0.0
  J1                   JUNCTION             28.99      4.00       0.0
  J2                   JUNCTION             25.99      4.00       0.0
  J3                   JUNCTION             30.99      4.00       0.0
  J4                   JUNCTION             33.99      4.00       0.0
  J5                   JUNCTION             28.99      4.00       0.0
  J6                   JUNCTION             23.79      4.00       0.0
  J7                   JUNCTION             28.39      4.00       0.0
  J8                   JUNCTION             29.99      4.00       0.0
  J9                   JUNCTION             28.69      4.00       0.0
  J10                  JUNCTION             25.99      4.00       0.0
  J11                  JUNCTION             25.69      4.00       0.0
  J12                  JUNCTION             22.79      4.00       0.0
  J13                  JUNCTION             25.29      4.00       0.0
  J14                  JUNCTION             24.59      4.00       0.0
  J15                  JUNCTION             24.19      4.00       0.0
  J16                  JUNCTION             23.39      4.00       0.0
  J17                  JUNCTION             22.09      4.00       0.0
  J18                  JUNCTION             16.00      4.00       0.0
  J20                  JUNCTION             17.70      4.00       0.0
  J21                  JUNCTION             19.00      4.00       0.0
  J23                  JUNCTION             22.29      4.00       0.0
  J24                  JUNCTION             20.89      4.00       0.0
  J25                  JUNCTION             30.19      4.00       0.0
  J19                  OUTFALL              15.50      3.60       0.0
  
  
  ************
  Link Summary
  ************
  Name             From Node        To Node          Type            Length    %Slope Roughness
  ---------------------------------------------------------------------------------------------
  C0               J0               J2               CONDUIT          214.0    2.3371    0.0110
  C1               J1               J2               CONDUIT          152.0    1.9741    0.0110
  C2               J3               J2               CONDUIT          306.0    1.6342    0.0110
  C3               J4               J3               CONDUIT          128.0    2.3444    0.0110
  C4               J2               J6               CONDUIT          293.0    0.7509    0.0110
  C5               J5               J6               CONDUIT          246.0    2.1143    0.0110
  C6               J25              J11              CONDUIT          289.0    1.5573    0.0110
  C7               J6               J12              CONDUIT          335.0    0.2985    0.0110
  C8               J7               J6               CONDUIT          187.0    2.4606    0.0110
  C9               J8               J9               CONDUIT          119.0    1.0925    0.0110
  C10              J9               J16              CONDUIT          325.0    1.6310    0.0110
  C11              J10              J11              CONDUIT          227.0    0.1322    0.0110
  C12              J12              J18              CONDUIT          401.0    1.6935    0.0110
  C13              J17              J18              CONDUIT          267.0    2.2815    0.0110
  C14              J11              J13              CONDUIT          113.0    0.3540    0.0110
  C16              J13              J17              CONDUIT          409.0    0.7824    0.0110
  C17              J24              J20              CONDUIT          329.0    0.9697    0.0110
  C18              J20              J18              CONDUIT          215.0    0.7907    0.0110
  C19              J16              J21              CONDUIT          437.0    1.0046    0.0110
  C20              J21              J20              CONDUIT          295.0    0.4407    0.0110
  C21              J23              J21              CONDUIT          204.0    1.6130    0.0110
  C23              J18              J19              CONDUIT          161.0    0.3106    0.0110
  C24              J15              J16              CONDUIT          197.0    0.4061    0.0110
  C22              J14              J12              CONDUIT          280.0    0.6429    0.0110
  
  
  *********************
  Cross Section Summary
  *********************
                                        Full     Full     Hyd.     Max.   No. of     Full
  Conduit          Shape               Depth     Area     Rad.    Width  Barrels     Flow
  ---------------------------------------------------------------------------------------
  C0               CIRCULAR             0.70     0.38     0.17     0.70        1     1.67
  C1               CIRCULAR             0.60     0.28     0.15     0.60        1     1.02
  C2               CIRCULAR             0.80     0.50     0.20     0.80        1     2.00
  C3               CIRCULAR             0.60     0.28     0.15     0.60        1     1.11
  C4               CIRCULAR             1.20     1.13     0.30     1.20        1     3.99
  C5               CIRCULAR             0.70     0.38     0.17     0.70        1     1.59
  C6               CIRCULAR             0.80     0.50     0.20     0.80        1     1.95
  C7               CIRCULAR             2.40     4.52     0.60     2.40        1    15.99
  C8               CIRCULAR             0.70     0.38     0.17     0.70        1     1.72
  C9               CIRCULAR             0.70     0.38     0.17     0.70        1     1.14
  C10              CIRCULAR             1.00     0.79     0.25     1.00        1     3.62
  C11              CIRCULAR             1.50     1.77     0.38     1.50        1     3.04
  C12              CIRCULAR             3.00     7.07     0.75     3.00        1    69.04
  C13              CIRCULAR             1.50     1.77     0.38     1.50        1    12.62
  C14              CIRCULAR             1.50     1.77     0.38     1.50        1     4.97
  C16              CIRCULAR             1.35     1.43     0.34     1.35        1     5.58
  C17              CIRCULAR             0.80     0.50     0.20     0.80        1     1.54
  C18              CIRCULAR             3.00     7.07     0.75     3.00        1    47.18
  C19              CIRCULAR             3.00     7.07     0.75     3.00        1    53.18
  C20              CIRCULAR             3.00     7.07     0.75     3.00        1    35.22
  C21              CIRCULAR             1.00     0.79     0.25     1.00        1     3.60
  C23              CIRCULAR             3.60    10.18     0.90     3.60        1    48.08
  C24              CIRCULAR             1.10     0.95     0.28     1.10        1     2.33
  C22              CIRCULAR             1.40     1.54     0.35     1.40        1     5.57
  
  
  
  *********************************************************
  NOTE: The summary statistics displayed in this report are
  based on results found at every computational time step,  
  not just on results from each reporting time step.
  *********************************************************
  
  ****************
  Analysis Options
  ****************
  Flow Units ............... CMS
  Process Models:
    Rainfall/Runoff ........ YES
    RDII ................... NO
    Snowmelt ............... NO
    Groundwater ............ NO
    Flow Routing ........... YES
    Ponding Allowed ........ NO
    Water Quality .......... NO
  Infiltration Method ...... HORTON
  Flow Routing Method ...... DYNWAVE
  Starting Date ............ 07/10/2005 17:10:00
  Ending Date .............. 07/10/2005 22:15:00
  Antecedent Dry Days ...... 0.0
  Report Time Step ......... 00:05:00
  Wet Time Step ............ 00:05:00
  Dry Time Step ............ 01:00:00
  Routing Time Step ........ 30.00 sec
  Variable Time Step ....... YES
  Maximum Trials ........... 8
  Number of Threads ........ 1
  Head Tolerance ........... 0.005000 m
  
  
  **************************        Volume         Depth
  Runoff Quantity Continuity     hectare-m            mm
  **************************     ---------       -------
  Total Precipitation ......         3.520        30.100
  Evaporation Loss .........         0.000         0.000
  Infiltration Loss ........         0.757         6.477
  Surface Runoff ...........         2.130        18.213
  Final Storage ............         0.640         5.472
  Continuity Error (%) .....        -0.208
  
  
  **************************        Volume        Volume
  Flow Routing Continuity        hectare-m      10^6 ltr
  **************************     ---------     ---------
  Dry Weather Inflow .......         0.000         0.000
  Wet Weather Inflow .......         2.125        21.249
  Groundwater Inflow .......         0.000         0.000
  RDII Inflow ..............         0.000         0.000
  External Inflow ..........         0.000         0.000
  External Outflow .........         2.105        21.055
  Flooding Loss ............         0.000         0.000
  Evaporation Loss .........         0.000         0.000
  Exfiltration Loss ........         0.000         0.000
  Initial Stored Volume ....         0.021         0.207
  Final Stored Volume ......         0.032         0.321
  Continuity Error (%) .....         0.381
  
  
  ***************************
  Time-Step Critical Elements
  ***************************
  Link C14 (37.80%)
  
  
  ********************************
  Highest Flow Instability Indexes
  ********************************
  Link C7 (2)
  Link C3 (2)
  Link C4 (2)
  Link C1 (2)
  Link C0 (2)
  
  
  *************************
  Routing Time Step Summary
  *************************
  Minimum Time Step           :     3.22 sec
  Average Time Step           :    27.89 sec
  Maximum Time Step           :    30.00 sec
  Percent in Steady State     :     0.00
  Average Iterations per Step :     2.00
  Percent Not Converging      :     0.00
  
  
  ***************************
  Subcatchment Runoff Summary
  ***************************
  
  --------------------------------------------------------------------------------------------------------
                            Total      Total      Total      Total      Total       Total     Peak  Runoff
                           Precip      Runon       Evap      Infil     Runoff      Runoff   Runoff   Coeff
  Subcatchment                 mm         mm         mm         mm         mm    10^6 ltr      CMS
  --------------------------------------------------------------------------------------------------------
  S1                        30.10       0.00       0.00       0.54      27.91        0.62     0.21   0.927
  S2                        30.10       0.00       0.00       6.17      19.14        1.39     0.35   0.636
  S3                        30.10       0.00       0.00       9.67      16.34        0.25     0.09   0.543
  S4                        30.10       0.00       0.00      10.58      12.64        0.78     0.22   0.420
  S5                        30.10       0.00       0.00      10.60      11.96        1.11     0.29   0.397
  S6                        30.10       0.00       0.00       4.65      21.40        1.49     0.38   0.711
  S7                        30.10       0.00       0.00       7.00      19.15        0.63     0.20   0.636
  S8                        30.10       0.00       0.00       1.71      24.30        2.60     0.55   0.807
  S9                        30.10       0.00       0.00       9.21      13.16        2.16     0.47   0.437
  S10                       30.10       0.00       0.00       8.06      17.85        0.49     0.16   0.593
  S11                       30.10       0.00       0.00       8.27      16.51        1.53     0.44   0.548
  S12                       30.10       0.00       0.00       3.80      21.70        2.30     0.50   0.721
  S13                       30.10       0.00       0.00       3.58      22.60        2.28     0.54   0.751
  S14                       30.10       0.00       0.00       7.13      16.85        1.94     0.44   0.560
  S15                       30.10       0.00       0.00       5.66      19.49        1.74     0.41   0.648
  
  
  ******************
  Node Depth Summary
  ******************
  
  ---------------------------------------------------------------------------------
                                 Average  Maximum  Maximum  Time of Max    Reported
                                   Depth    Depth      HGL   Occurrence   Max Depth
  Node                 Type       Meters   Meters   Meters  days hr:min      Meters
  ---------------------------------------------------------------------------------
  J0                   JUNCTION     0.09     0.22    31.21     0  01:55        0.21
  J1                   JUNCTION     0.07     0.18    29.17     0  01:55        0.18
  J2                   JUNCTION     0.13     0.32    26.31     0  01:58        0.32
  J3                   JUNCTION     0.04     0.11    31.10     0  01:56        0.11
  J4                   JUNCTION     0.04     0.12    34.11     0  01:55        0.11
  J5                   JUNCTION     0.10     0.23    29.22     0  01:55        0.23
  J6                   JUNCTION     0.21     0.47    24.26     0  01:59        0.47
  J7                   JUNCTION     0.08     0.20    28.59     0  01:55        0.19
  J8                   JUNCTION     0.09     0.21    30.20     0  01:55        0.21
  J9                   JUNCTION     0.09     0.22    28.91     0  01:56        0.21
  J10                  JUNCTION     0.16     0.38    26.37     0  01:56        0.37
  J11                  JUNCTION     0.22     0.49    26.18     0  01:58        0.49
  J12                  JUNCTION     0.15     0.33    23.12     0  02:01        0.32
  J13                  JUNCTION     0.18     0.42    25.71     0  01:59        0.42
  J14                  JUNCTION     0.13     0.28    24.87     0  01:57        0.28
  J15                  JUNCTION     0.15     0.34    24.53     0  01:56        0.33
  J16                  JUNCTION     0.11     0.26    23.65     0  01:58        0.26
  J17                  JUNCTION     0.16     0.37    22.46     0  02:00        0.37
  J18                  JUNCTION     0.36     0.79    16.79     0  02:02        0.78
  J20                  JUNCTION     0.18     0.39    18.09     0  02:01        0.39
  J21                  JUNCTION     0.17     0.38    19.38     0  02:00        0.38
  J23                  JUNCTION     0.10     0.23    22.52     0  01:55        0.23
  J24                  JUNCTION     0.14     0.33    21.22     0  01:56        0.32
  J25                  JUNCTION     0.07     0.17    30.36     0  01:56        0.17
  J19                  OUTFALL      0.35     0.79    16.29     0  02:03        0.78
  
  
  *******************
  Node Inflow Summary
  *******************
  
  -------------------------------------------------------------------------------------------------
                                  Maximum  Maximum                  Lateral       Total        Flow
                                  Lateral    Total  Time of Max      Inflow      Inflow     Balance
                                   Inflow   Inflow   Occurrence      Volume      Volume       Error
  Node                 Type           CMS      CMS  days hr:min    10^6 ltr    10^6 ltr     Percent
  -------------------------------------------------------------------------------------------------
  J0                   JUNCTION     0.355    0.355     0  01:55        1.39        1.39      -0.481
  J1                   JUNCTION     0.207    0.207     0  01:55       0.616       0.616      -0.010
  J2                   JUNCTION     0.000    0.642     0  01:55           0        2.26      -0.287
  J3                   JUNCTION     0.000    0.089     0  01:55           0        0.25       0.312
  J4                   JUNCTION     0.090    0.090     0  01:55        0.25        0.25      -0.056
  J5                   JUNCTION     0.376    0.376     0  01:55        1.49        1.49       0.099
  J6                   JUNCTION     0.000    1.268     0  01:57           0        4.86       0.057
  J7                   JUNCTION     0.295    0.295     0  01:55        1.11        1.11       0.086
  J8                   JUNCTION     0.224    0.224     0  01:55       0.779       0.779       0.079
  J9                   JUNCTION     0.160    0.381     0  01:55       0.487        1.26       0.147
  J10                  JUNCTION     0.437    0.437     0  01:55        1.53        1.53       0.192
  J11                  JUNCTION     0.549    1.158     0  01:56        2.59        4.74       0.407
  J12                  JUNCTION     0.000    1.733     0  02:00           0        7.01      -0.161
  J13                  JUNCTION     0.000    1.144     0  01:58           0        4.72       0.238
  J14                  JUNCTION     0.474    0.474     0  01:55        2.16        2.16       0.213
  J15                  JUNCTION     0.444    0.444     0  01:55        1.94        1.94       0.157
  J16                  JUNCTION     0.000    0.823     0  01:56           0         3.2       0.415
  J17                  JUNCTION     0.500    1.646     0  01:59        2.29           7       0.215
  J18                  JUNCTION     0.000    5.059     0  02:01           0        21.1       0.402
  J20                  JUNCTION     0.000    1.716     0  02:00           0        7.16       0.327
  J21                  JUNCTION     0.000    1.207     0  01:58           0        4.92       0.606
  J23                  JUNCTION     0.415    0.415     0  01:55        1.73        1.73       0.071
  J24                  JUNCTION     0.540    0.540     0  01:55        2.27        2.27       0.124
  J25                  JUNCTION     0.197    0.197     0  01:55       0.628       0.627       0.043
  J19                  OUTFALL      0.000    5.061     0  02:03           0        21.1       0.000
  
  
  **********************
  Node Surcharge Summary
  **********************
  
  No nodes were surcharged.
  
  
  *********************
  Node Flooding Summary
  *********************
  
  No nodes were flooded.
  
  
  ***********************
  Outfall Loading Summary
  ***********************
  
  -----------------------------------------------------------
                         Flow       Avg       Max       Total
                         Freq      Flow      Flow      Volume
  Outfall Node           Pcnt       CMS       CMS    10^6 ltr
  -----------------------------------------------------------
  J19                  100.00     1.285     5.061      21.055
  -----------------------------------------------------------
  System               100.00     1.285     5.061      21.055
  
  
  ********************
  Link Flow Summary
  ********************
  
  -----------------------------------------------------------------------------
                                 Maximum  Time of Max   Maximum    Max/    Max/
                                  |Flow|   Occurrence   |Veloc|    Full    Full
  Link                 Type          CMS  days hr:min     m/sec    Flow   Depth
  -----------------------------------------------------------------------------
  C0                   CONDUIT     0.355     0  01:55      4.43    0.21    0.38
  C1                   CONDUIT     0.206     0  01:55      1.92    0.20    0.41
  C2                   CONDUIT     0.085     0  01:56      0.79    0.04    0.27
  C3                   CONDUIT     0.089     0  01:55      2.42    0.08    0.19
  C4                   CONDUIT     0.616     0  01:58      1.92    0.15    0.33
  C5                   CONDUIT     0.376     0  01:56      2.07    0.24    0.50
  C6                   CONDUIT     0.193     0  01:56      1.02    0.10    0.41
  C7                   CONDUIT     1.260     0  02:00      2.58    0.08    0.17
  C8                   CONDUIT     0.295     0  01:55      1.75    0.17    0.47
  C9                   CONDUIT     0.225     0  01:55      2.27    0.20    0.30
  C10                  CONDUIT     0.375     0  01:56      2.69    0.10    0.23
  C11                  CONDUIT     0.424     0  01:56      1.01    0.14    0.29
  C12                  CONDUIT     1.721     0  02:01      2.59    0.02    0.19
  C13                  CONDUIT     1.642     0  02:00      2.68    0.13    0.38
  C14                  CONDUIT     1.144     0  01:58      2.53    0.23    0.30
  C16                  CONDUIT     1.146     0  01:59      3.29    0.21    0.29
  C17                  CONDUIT     0.537     0  01:56      2.64    0.35    0.44
  C18                  CONDUIT     1.705     0  02:02      1.74    0.04    0.20
  C19                  CONDUIT     0.798     0  01:58      2.04    0.02    0.11
  C20                  CONDUIT     1.187     0  02:01      2.26    0.03    0.13
  C21                  CONDUIT     0.415     0  01:55      2.24    0.12    0.30
  C23                  CONDUIT     5.061     0  02:03      3.66    0.11    0.22
  C24                  CONDUIT     0.448     0  01:56      2.21    0.19    0.27
  C22                  CONDUIT     0.473     0  01:57      2.10    0.08    0.21
  
  
  ***************************
  Flow Classification Summary
  ***************************
  
  -------------------------------------------------------------------------------------
                      Adjusted    ---------- Fraction of Time in Flow Class ---------- 
                       /Actual         Up    Down  Sub   Sup   Up    Down  Norm  Inlet 
  Conduit               Length    Dry  Dry   Dry   Crit  Crit  Crit  Crit  Ltd   Ctrl  
  -------------------------------------------------------------------------------------
  C0                      1.00   0.00  0.00  0.00  0.06  0.94  0.00  0.00  1.00  0.00
  C1                      1.00   0.00  0.02  0.00  0.58  0.40  0.00  0.00  0.98  0.00
  C2                      1.00   0.00  0.02  0.00  0.98  0.00  0.00  0.00  0.98  0.00
  C3                      1.00   0.02  0.00  0.00  0.01  0.97  0.00  0.00  0.77  0.00
  C4                      1.00   0.00  0.00  0.00  0.59  0.41  0.00  0.00  1.00  0.00
  C5                      1.00   0.00  0.02  0.00  0.27  0.71  0.00  0.00  0.98  0.00
  C6                      1.00   0.02  0.00  0.00  0.94  0.04  0.00  0.00  0.98  0.00
  C7                      1.00   0.00  0.00  0.00  0.00  1.00  0.00  0.00  0.00  0.00
  C8                      1.00   0.00  0.02  0.00  0.80  0.18  0.00  0.00  0.98  0.00
  C9                      1.00   0.02  0.00  0.00  0.03  0.96  0.00  0.00  0.83  0.00
  C10                     1.00   0.02  0.00  0.00  0.01  0.97  0.00  0.00  0.87  0.00
  C11                     1.00   0.02  0.00  0.00  0.98  0.00  0.00  0.00  0.89  0.00
  C12                     1.00   0.00  0.00  0.00  0.93  0.07  0.00  0.00  1.00  0.00
  C13                     1.00   0.00  0.02  0.00  0.08  0.89  0.00  0.00  0.98  0.00
  C14                     1.00   0.02  0.00  0.00  0.05  0.93  0.00  0.00  0.18  0.00
  C16                     1.00   0.02  0.00  0.00  0.07  0.91  0.00  0.00  0.06  0.00
  C17                     1.00   0.02  0.00  0.00  0.02  0.96  0.00  0.00  0.86  0.00
  C18                     1.00   0.00  0.02  0.00  0.98  0.00  0.00  0.00  0.98  0.00
  C19                     1.00   0.02  0.00  0.00  0.06  0.92  0.00  0.00  0.98  0.00
  C20                     1.00   0.02  0.00  0.00  0.08  0.90  0.00  0.00  0.67  0.00
  C21                     1.00   0.02  0.00  0.00  0.02  0.96  0.00  0.00  0.91  0.00
  C23                     1.00   0.00  0.00  0.00  0.00  1.00  0.00  0.00  0.43  0.00
  C24                     1.00   0.02  0.00  0.00  0.04  0.95  0.00  0.00  0.00  0.00
  C22                     1.00   0.00  0.02  0.00  0.06  0.92  0.00  0.00  0.92  0.00
  
  
  *************************
  Conduit Surcharge Summary
  *************************
  
  No conduits were surcharged.
  
  
  ********************
  Subcatchment Results
  ********************
  
  <<< Subcatchment S1 >>>
  ---------------------------------------------------
  Date        Time        Precip.    Losses    Runoff
                            mm/hr     mm/hr       CMS
  ---------------------------------------------------
   07/10/2005 17:15:00      1.200     0.030    0.0000
   07/10/2005 17:20:00      3.600     0.087    0.0000
   07/10/2005 17:25:00      7.200     0.165    0.0003
   07/10/2005 17:30:00     10.800     0.229    0.0014
   07/10/2005 17:35:00      6.000     0.117    0.0045
   07/10/2005 17:40:00      3.600     0.068    0.0080
   07/10/2005 17:45:00      2.400     0.046    0.0097
   07/10/2005 17:50:00      3.600     0.067    0.0103
   07/10/2005 17:55:00      3.600     0.067    0.0120
   07/10/2005 18:00:00      3.600     0.067    0.0135
   07/10/2005 18:05:00      8.400     0.152    0.0149
   07/10/2005 18:10:00     21.600     0.377    0.0217
   07/10/2005 18:15:00     12.000     0.214    0.0478
   07/10/2005 18:20:00     24.000     0.417    0.0544
   07/10/2005 18:25:00     24.000     0.417    0.0817
   07/10/2005 18:30:00      7.200     0.131    0.1029
   07/10/2005 18:35:00     18.000     0.316    0.0826
   07/10/2005 18:40:00      4.800     0.089    0.0912
   07/10/2005 18:45:00     10.800     0.194    0.0710
   07/10/2005 18:50:00     25.200     0.437    0.0691
   07/10/2005 18:55:00     28.800     0.496    0.0964
   07/10/2005 19:00:00     54.000     0.905    0.1243
   07/10/2005 19:05:00     21.600     0.377    0.2068
   07/10/2005 19:10:00     10.800     0.194    0.1743
   07/10/2005 19:15:00      2.400     0.046    0.1310
   07/10/2005 19:20:00      1.200     0.023    0.0893
   07/10/2005 19:25:00      0.000     0.000    0.0632
   07/10/2005 19:30:00      0.000     0.000    0.0453
   07/10/2005 19:35:00      1.200     0.023    0.0337
   07/10/2005 19:40:00      0.000     0.000    0.0275
   07/10/2005 19:45:00      0.000     0.000    0.0216
   07/10/2005 19:50:00      0.000     0.000    0.0173
   07/10/2005 19:55:00      1.200     0.023    0.0141
   07/10/2005 20:00:00      8.400     0.152    0.0129
   07/10/2005 20:05:00      7.200     0.131    0.0200
   07/10/2005 20:10:00      2.400     0.046    0.0249
   07/10/2005 20:15:00      1.200     0.023    0.0227
   07/10/2005 20:20:00      2.400     0.046    0.0195
   07/10/2005 20:25:00      3.600     0.067    0.0185
   07/10/2005 20:30:00      3.600     0.067    0.0191
   07/10/2005 20:35:00      2.400     0.046    0.0196
   07/10/2005 20:40:00      1.200     0.023    0.0186
   07/10/2005 20:45:00      1.200     0.023    0.0164
   07/10/2005 20:50:00      0.000     0.000    0.0147
   07/10/2005 20:55:00      1.200     0.023    0.0122
   07/10/2005 21:00:00      1.200     0.023    0.0113
   07/10/2005 21:05:00      1.200     0.023    0.0107
   07/10/2005 21:10:00      1.200     0.023    0.0101
   07/10/2005 21:15:00      0.000     0.000    0.0097
   07/10/2005 21:20:00      0.000     0.000    0.0082
   07/10/2005 21:25:00      0.000     0.000    0.0070
   07/10/2005 21:30:00      0.000     0.000    0.0061
   07/10/2005 21:35:00      0.000     0.000    0.0053
   07/10/2005 21:40:00      0.000     0.000    0.0047
   07/10/2005 21:45:00      0.000     0.000    0.0041
   07/10/2005 21:50:00      0.000     0.000    0.0037
   07/10/2005 21:55:00      0.000     0.000    0.0033
   07/10/2005 22:00:00      0.000     0.000    0.0030
   07/10/2005 22:05:00      0.000     0.000    0.0027
   07/10/2005 22:10:00      0.000     0.000    0.0024
  
  
  <<< Subcatchment S2 >>>
  ---------------------------------------------------
  Date        Time        Precip.    Losses    Runoff
                            mm/hr     mm/hr       CMS
  ---------------------------------------------------
   07/10/2005 17:15:00      1.200     0.339    0.0000
   07/10/2005 17:20:00      3.600     0.989    0.0000
   07/10/2005 17:25:00      7.200     1.885    0.0000
   07/10/2005 17:30:00     10.800     2.610    0.0014
   07/10/2005 17:35:00      6.000     1.332    0.0049
   07/10/2005 17:40:00      3.600     0.772    0.0090
   07/10/2005 17:45:00      2.400     0.519    0.0116
   07/10/2005 17:50:00      3.600     0.768    0.0130
   07/10/2005 17:55:00      3.600     0.768    0.0157
   07/10/2005 18:00:00      3.600     0.768    0.0184
   07/10/2005 18:05:00      8.400     1.736    0.0211
   07/10/2005 18:10:00     21.600     4.299    0.0304
   07/10/2005 18:15:00     12.000     2.446    0.0639
   07/10/2005 18:20:00     24.000     4.755    0.0783
   07/10/2005 18:25:00     24.000     4.755    0.1196
   07/10/2005 18:30:00      7.200     1.497    0.1582
   07/10/2005 18:35:00     18.000     3.609    0.1446
   07/10/2005 18:40:00      4.800     1.013    0.1635
   07/10/2005 18:45:00     10.800     2.210    0.1424
   07/10/2005 18:50:00     25.200     4.983    0.1422
   07/10/2005 18:55:00     28.800     5.662    0.1826
   07/10/2005 19:00:00     54.000    10.326    0.2283
   07/10/2005 19:05:00     21.600     4.299    0.3550
   07/10/2005 19:10:00     10.800     2.210    0.3372
   07/10/2005 19:15:00      2.400     0.519    0.2875
   07/10/2005 19:20:00      1.200     0.266    0.2263
   07/10/2005 19:25:00      0.000     0.000    0.1804
   07/10/2005 19:30:00      0.000     0.000    0.1444
   07/10/2005 19:35:00      1.200     0.266    0.1182
   07/10/2005 19:40:00      0.000     0.000    0.1012
   07/10/2005 19:45:00      0.000     0.000    0.0855
   07/10/2005 19:50:00      0.000     0.000    0.0732
   07/10/2005 19:55:00      1.200     0.266    0.0634
   07/10/2005 20:00:00      8.400     1.736    0.0578
   07/10/2005 20:05:00      7.200     1.497    0.0667
   07/10/2005 20:10:00      2.400     0.519    0.0723
   07/10/2005 20:15:00      1.200     0.266    0.0674
   07/10/2005 20:20:00      2.400     0.519    0.0611
   07/10/2005 20:25:00      3.600     0.768    0.0581
   07/10/2005 20:30:00      3.600     0.768    0.0578
   07/10/2005 20:35:00      2.400     0.519    0.0576
   07/10/2005 20:40:00      1.200     0.266    0.0551
   07/10/2005 20:45:00      1.200     0.266    0.0509
   07/10/2005 20:50:00      0.000     0.000    0.0474
   07/10/2005 20:55:00      1.200     0.266    0.0424
   07/10/2005 21:00:00      1.200     0.266    0.0401
   07/10/2005 21:05:00      1.200     0.266    0.0382
   07/10/2005 21:10:00      1.200     0.266    0.0364
   07/10/2005 21:15:00      0.000     0.000    0.0349
   07/10/2005 21:20:00      0.000     0.000    0.0318
   07/10/2005 21:25:00      0.000     0.000    0.0292
   07/10/2005 21:30:00      0.000     0.000    0.0269
   07/10/2005 21:35:00      0.000     0.000    0.0249
   07/10/2005 21:40:00      0.000     0.000    0.0231
   07/10/2005 21:45:00      0.000     0.000    0.0216
   07/10/2005 21:50:00      0.000     0.000    0.0202
   07/10/2005 21:55:00      0.000     0.000    0.0189
   07/10/2005 22:00:00      0.000     0.000    0.0178
   07/10/2005 22:05:00      0.000     0.000    0.0168
   07/10/2005 22:10:00      0.000     0.000    0.0159
  
  
  <<< Subcatchment S3 >>>
  ---------------------------------------------------
  Date        Time        Precip.    Losses    Runoff
                            mm/hr     mm/hr       CMS
  ---------------------------------------------------
   07/10/2005 17:15:00      1.200     0.531    0.0000
   07/10/2005 17:20:00      3.600     1.549    0.0000
   07/10/2005 17:25:00      7.200     2.955    0.0003
   07/10/2005 17:30:00     10.800     4.091    0.0011
   07/10/2005 17:35:00      6.000     2.088    0.0035
   07/10/2005 17:40:00      3.600     1.210    0.0055
   07/10/2005 17:45:00      2.400     0.813    0.0058
   07/10/2005 17:50:00      3.600     1.203    0.0052
   07/10/2005 17:55:00      3.600     1.203    0.0057
   07/10/2005 18:00:00      3.600     1.203    0.0060
   07/10/2005 18:05:00      8.400     2.721    0.0062
   07/10/2005 18:10:00     21.600     6.736    0.0099
   07/10/2005 18:15:00     12.000     3.833    0.0247
   07/10/2005 18:20:00     24.000     7.452    0.0231
   07/10/2005 18:25:00     24.000     7.452    0.0351
   07/10/2005 18:30:00      7.200     2.346    0.0408
   07/10/2005 18:35:00     18.000     5.656    0.0250
   07/10/2005 18:40:00      4.800     1.587    0.0303
   07/10/2005 18:45:00     10.800     3.464    0.0194
   07/10/2005 18:50:00     25.200     7.809    0.0206
   07/10/2005 18:55:00     28.800     8.873    0.0370
   07/10/2005 19:00:00     54.000    16.183    0.0499
   07/10/2005 19:05:00     21.600     6.736    0.0903
   07/10/2005 19:10:00     10.800     3.464    0.0617
   07/10/2005 19:15:00      2.400     0.813    0.0414
   07/10/2005 19:20:00      1.200     0.416    0.0258
   07/10/2005 19:25:00      0.000     0.000    0.0184
   07/10/2005 19:30:00      0.000     0.000    0.0138
   07/10/2005 19:35:00      1.200     0.416    0.0111
   07/10/2005 19:40:00      0.000     0.000    0.0102
   07/10/2005 19:45:00      0.000     0.000    0.0087
   07/10/2005 19:50:00      0.000     0.000    0.0077
   07/10/2005 19:55:00      1.200     0.416    0.0069
   07/10/2005 20:00:00      8.400     2.721    0.0068
   07/10/2005 20:05:00      7.200     2.346    0.0113
   07/10/2005 20:10:00      2.400     0.813    0.0143
   07/10/2005 20:15:00      1.200     0.416    0.0124
   07/10/2005 20:20:00      2.400     0.813    0.0104
   07/10/2005 20:25:00      3.600     1.203    0.0099
   07/10/2005 20:30:00      3.600     1.203    0.0104
   07/10/2005 20:35:00      2.400     0.813    0.0107
   07/10/2005 20:40:00      1.200     0.416    0.0100
   07/10/2005 20:45:00      1.200     0.416    0.0088
   07/10/2005 20:50:00      0.000     0.000    0.0079
   07/10/2005 20:55:00      1.200     0.416    0.0066
   07/10/2005 21:00:00      1.200     0.416    0.0064
   07/10/2005 21:05:00      1.200     0.416    0.0062
   07/10/2005 21:10:00      1.200     0.416    0.0060
   07/10/2005 21:15:00      0.000     0.000    0.0058
   07/10/2005 21:20:00      0.000     0.000    0.0050
   07/10/2005 21:25:00      0.000     0.000    0.0045
   07/10/2005 21:30:00      0.000     0.000    0.0041
   07/10/2005 21:35:00      0.000     0.000    0.0037
   07/10/2005 21:40:00      0.000     0.000    0.0034
   07/10/2005 21:45:00      0.000     0.000    0.0032
   07/10/2005 21:50:00      0.000     0.000    0.0030
   07/10/2005 21:55:00      0.000     0.000    0.0028
   07/10/2005 22:00:00      0.000     0.000    0.0026
   07/10/2005 22:05:00      0.000     0.000    0.0025
   07/10/2005 22:10:00      0.000     0.000    0.0024
  
  
  <<< Subcatchment S4 >>>
  ---------------------------------------------------
  Date        Time        Precip.    Losses    Runoff
                            mm/hr     mm/hr       CMS
  ---------------------------------------------------
   07/10/2005 17:15:00      1.200     0.581    0.0000
   07/10/2005 17:20:00      3.600     1.696    0.0000
   07/10/2005 17:25:00      7.200     3.233    0.0000
   07/10/2005 17:30:00     10.800     4.477    0.0014
   07/10/2005 17:35:00      6.000     2.285    0.0046
   07/10/2005 17:40:00      3.600     1.324    0.0081
   07/10/2005 17:45:00      2.400     0.890    0.0100
   07/10/2005 17:50:00      3.600     1.317    0.0106
   07/10/2005 17:55:00      3.600     1.317    0.0124
   07/10/2005 18:00:00      3.600     1.317    0.0141
   07/10/2005 18:05:00      8.400     2.977    0.0156
   07/10/2005 18:10:00     21.600     7.372    0.0226
   07/10/2005 18:15:00     12.000     4.195    0.0495
   07/10/2005 18:20:00     24.000     8.156    0.0568
   07/10/2005 18:25:00     24.000     8.156    0.0855
   07/10/2005 18:30:00      7.200     2.567    0.1083
   07/10/2005 18:35:00     18.000     6.190    0.0884
   07/10/2005 18:40:00      4.800     1.737    0.0979
   07/10/2005 18:45:00     10.800     3.791    0.0775
   07/10/2005 18:50:00     25.200     8.546    0.0759
   07/10/2005 18:55:00     28.800     9.711    0.1048
   07/10/2005 19:00:00     54.000    17.710    0.1353
   07/10/2005 19:05:00     21.600     7.372    0.2243
   07/10/2005 19:10:00     10.800     3.791    0.1947
   07/10/2005 19:15:00      2.400     0.890    0.1516
   07/10/2005 19:20:00      1.200     0.456    0.1084
   07/10/2005 19:25:00      0.000     0.000    0.0808
   07/10/2005 19:30:00      0.000     0.000    0.0613
   07/10/2005 19:35:00      1.200     0.456    0.0486
   07/10/2005 19:40:00      0.000     0.000    0.0416
   07/10/2005 19:45:00      0.000     0.000    0.0349
   07/10/2005 19:50:00      0.000     0.000    0.0299
   07/10/2005 19:55:00      1.200     0.456    0.0262
   07/10/2005 20:00:00      8.400     2.977    0.0246
   07/10/2005 20:05:00      7.200     2.567    0.0324
   07/10/2005 20:10:00      2.400     0.890    0.0377
   07/10/2005 20:15:00      1.200     0.456    0.0354
   07/10/2005 20:20:00      2.400     0.890    0.0320
   07/10/2005 20:25:00      3.600     1.317    0.0309
   07/10/2005 20:30:00      3.600     1.317    0.0315
   07/10/2005 20:35:00      2.400     0.890    0.0321
   07/10/2005 20:40:00      1.200     0.456    0.0310
   07/10/2005 20:45:00      1.200     0.456    0.0286
   07/10/2005 20:50:00      0.000     0.000    0.0268
   07/10/2005 20:55:00      1.200     0.456    0.0239
   07/10/2005 21:00:00      1.200     0.456    0.0229
   07/10/2005 21:05:00      1.200     0.456    0.0220
   07/10/2005 21:10:00      1.200     0.456    0.0213
   07/10/2005 21:15:00      0.000     0.000    0.0207
   07/10/2005 21:20:00      0.000     0.000    0.0190
   07/10/2005 21:25:00      0.000     0.000    0.0176
   07/10/2005 21:30:00      0.000     0.000    0.0164
   07/10/2005 21:35:00      0.000     0.000    0.0154
   07/10/2005 21:40:00      0.000     0.000    0.0146
   07/10/2005 21:45:00      0.000     0.000    0.0138
   07/10/2005 21:50:00      0.000     0.000    0.0132
   07/10/2005 21:55:00      0.000     0.000    0.0126
   07/10/2005 22:00:00      0.000     0.000    0.0121
   07/10/2005 22:05:00      0.000     0.000    0.0116
   07/10/2005 22:10:00      0.000     0.000    0.0112
  
  
  <<< Subcatchment S5 >>>
  ---------------------------------------------------
  Date        Time        Precip.    Losses    Runoff
                            mm/hr     mm/hr       CMS
  ---------------------------------------------------
   07/10/2005 17:15:00      1.200     0.582    0.0000
   07/10/2005 17:20:00      3.600     1.698    0.0000
   07/10/2005 17:25:00      7.200     3.239    0.0000
   07/10/2005 17:30:00     10.800     4.484    0.0014
   07/10/2005 17:35:00      6.000     2.289    0.0048
   07/10/2005 17:40:00      3.600     1.326    0.0087
   07/10/2005 17:45:00      2.400     0.892    0.0110
   07/10/2005 17:50:00      3.600     1.319    0.0121
   07/10/2005 17:55:00      3.600     1.319    0.0145
   07/10/2005 18:00:00      3.600     1.319    0.0167
   07/10/2005 18:05:00      8.400     2.982    0.0189
   07/10/2005 18:10:00     21.600     7.384    0.0273
   07/10/2005 18:15:00     12.000     4.201    0.0582
   07/10/2005 18:20:00     24.000     8.169    0.0696
   07/10/2005 18:25:00     24.000     8.169    0.1055
   07/10/2005 18:30:00      7.200     2.571    0.1373
   07/10/2005 18:35:00     18.000     6.200    0.1203
   07/10/2005 18:40:00      4.800     1.740    0.1344
   07/10/2005 18:45:00     10.800     3.797    0.1128
   07/10/2005 18:50:00     25.200     8.559    0.1114
   07/10/2005 18:55:00     28.800     9.727    0.1463
   07/10/2005 19:00:00     54.000    17.739    0.1850
   07/10/2005 19:05:00     21.600     7.384    0.2950
   07/10/2005 19:10:00     10.800     3.797    0.2710
   07/10/2005 19:15:00      2.400     0.892    0.2230
   07/10/2005 19:20:00      1.200     0.456    0.1689
   07/10/2005 19:25:00      0.000     0.000    0.1309
   07/10/2005 19:30:00      0.000     0.000    0.1024
   07/10/2005 19:35:00      1.200     0.456    0.0825
   07/10/2005 19:40:00      0.000     0.000    0.0705
   07/10/2005 19:45:00      0.000     0.000    0.0593
   07/10/2005 19:50:00      0.000     0.000    0.0507
   07/10/2005 19:55:00      1.200     0.456    0.0441
   07/10/2005 20:00:00      8.400     2.982    0.0407
   07/10/2005 20:05:00      7.200     2.571    0.0494
   07/10/2005 20:10:00      2.400     0.892    0.0552
   07/10/2005 20:15:00      1.200     0.456    0.0518
   07/10/2005 20:20:00      2.400     0.892    0.0470
   07/10/2005 20:25:00      3.600     1.319    0.0452
   07/10/2005 20:30:00      3.600     1.319    0.0455
   07/10/2005 20:35:00      2.400     0.892    0.0459
   07/10/2005 20:40:00      1.200     0.456    0.0443
   07/10/2005 20:45:00      1.200     0.456    0.0411
   07/10/2005 20:50:00      0.000     0.000    0.0385
   07/10/2005 20:55:00      1.200     0.456    0.0346
   07/10/2005 21:00:00      1.200     0.456    0.0331
   07/10/2005 21:05:00      1.200     0.456    0.0317
   07/10/2005 21:10:00      1.200     0.456    0.0306
   07/10/2005 21:15:00      0.000     0.000    0.0296
   07/10/2005 21:20:00      0.000     0.000    0.0273
   07/10/2005 21:25:00      0.000     0.000    0.0253
   07/10/2005 21:30:00      0.000     0.000    0.0236
   07/10/2005 21:35:00      0.000     0.000    0.0222
   07/10/2005 21:40:00      0.000     0.000    0.0209
   07/10/2005 21:45:00      0.000     0.000    0.0198
   07/10/2005 21:50:00      0.000     0.000    0.0188
   07/10/2005 21:55:00      0.000     0.000    0.0180
   07/10/2005 22:00:00      0.000     0.000    0.0172
   07/10/2005 22:05:00      0.000     0.000    0.0165
   07/10/2005 22:10:00      0.000     0.000    0.0159
  
  
  <<< Subcatchment S6 >>>
  ---------------------------------------------------
  Date        Time        Precip.    Losses    Runoff
                            mm/hr     mm/hr       CMS
  ---------------------------------------------------
   07/10/2005 17:15:00      1.200     0.255    0.0000
   07/10/2005 17:20:00      3.600     0.745    0.0000
   07/10/2005 17:25:00      7.200     1.420    0.0000
   07/10/2005 17:30:00     10.800     1.967    0.0014
   07/10/2005 17:35:00      6.000     1.004    0.0049
   07/10/2005 17:40:00      3.600     0.582    0.0091
   07/10/2005 17:45:00      2.400     0.391    0.0117
   07/10/2005 17:50:00      3.600     0.578    0.0132
   07/10/2005 17:55:00      3.600     0.578    0.0161
   07/10/2005 18:00:00      3.600     0.578    0.0189
   07/10/2005 18:05:00      8.400     1.308    0.0218
   07/10/2005 18:10:00     21.600     3.239    0.0314
   07/10/2005 18:15:00     12.000     1.843    0.0657
   07/10/2005 18:20:00     24.000     3.583    0.0810
   07/10/2005 18:25:00     24.000     3.583    0.1240
   07/10/2005 18:30:00      7.200     1.128    0.1650
   07/10/2005 18:35:00     18.000     2.719    0.1527
   07/10/2005 18:40:00      4.800     0.763    0.1734
   07/10/2005 18:45:00     10.800     1.665    0.1528
   07/10/2005 18:50:00     25.200     3.754    0.1533
   07/10/2005 18:55:00     28.800     4.266    0.1956
   07/10/2005 19:00:00     54.000     7.780    0.2439
   07/10/2005 19:05:00     21.600     3.239    0.3765
   07/10/2005 19:10:00     10.800     1.665    0.3612
   07/10/2005 19:15:00      2.400     0.391    0.3113
   07/10/2005 19:20:00      1.200     0.200    0.2480
   07/10/2005 19:25:00      0.000     0.000    0.1996
   07/10/2005 19:30:00      0.000     0.000    0.1611
   07/10/2005 19:35:00      1.200     0.200    0.1325
   07/10/2005 19:40:00      0.000     0.000    0.1138
   07/10/2005 19:45:00      0.000     0.000    0.0963
   07/10/2005 19:50:00      0.000     0.000    0.0826
   07/10/2005 19:55:00      1.200     0.200    0.0716
   07/10/2005 20:00:00      8.400     1.308    0.0650
   07/10/2005 20:05:00      7.200     1.128    0.0739
   07/10/2005 20:10:00      2.400     0.391    0.0793
   07/10/2005 20:15:00      1.200     0.200    0.0739
   07/10/2005 20:20:00      2.400     0.391    0.0669
   07/10/2005 20:25:00      3.600     0.578    0.0635
   07/10/2005 20:30:00      3.600     0.578    0.0629
   07/10/2005 20:35:00      2.400     0.391    0.0623
   07/10/2005 20:40:00      1.200     0.200    0.0596
   07/10/2005 20:45:00      1.200     0.200    0.0550
   07/10/2005 20:50:00      0.000     0.000    0.0511
   07/10/2005 20:55:00      1.200     0.200    0.0456
   07/10/2005 21:00:00      1.200     0.200    0.0430
   07/10/2005 21:05:00      1.200     0.200    0.0408
   07/10/2005 21:10:00      1.200     0.200    0.0388
   07/10/2005 21:15:00      0.000     0.000    0.0371
   07/10/2005 21:20:00      0.000     0.000    0.0337
   07/10/2005 21:25:00      0.000     0.000    0.0308
   07/10/2005 21:30:00      0.000     0.000    0.0283
   07/10/2005 21:35:00      0.000     0.000    0.0261
   07/10/2005 21:40:00      0.000     0.000    0.0241
   07/10/2005 21:45:00      0.000     0.000    0.0224
   07/10/2005 21:50:00      0.000     0.000    0.0208
   07/10/2005 21:55:00      0.000     0.000    0.0194
   07/10/2005 22:00:00      0.000     0.000    0.0182
   07/10/2005 22:05:00      0.000     0.000    0.0171
   07/10/2005 22:10:00      0.000     0.000    0.0160
  
  
  <<< Subcatchment S7 >>>
  ---------------------------------------------------
  Date        Time        Precip.    Losses    Runoff
                            mm/hr     mm/hr       CMS
  ---------------------------------------------------
   07/10/2005 17:15:00      1.200     0.384    0.0000
   07/10/2005 17:20:00      3.600     1.121    0.0000
   07/10/2005 17:25:00      7.200     2.138    0.0003
   07/10/2005 17:30:00     10.800     2.961    0.0013
   07/10/2005 17:35:00      6.000     1.511    0.0045
   07/10/2005 17:40:00      3.600     0.876    0.0078
   07/10/2005 17:45:00      2.400     0.589    0.0094
   07/10/2005 17:50:00      3.600     0.871    0.0099
   07/10/2005 17:55:00      3.600     0.871    0.0114
   07/10/2005 18:00:00      3.600     0.871    0.0128
   07/10/2005 18:05:00      8.400     1.969    0.0140
   07/10/2005 18:10:00     21.600     4.876    0.0205
   07/10/2005 18:15:00     12.000     2.774    0.0455
   07/10/2005 18:20:00     24.000     5.394    0.0511
   07/10/2005 18:25:00     24.000     5.394    0.0766
   07/10/2005 18:30:00      7.200     1.698    0.0958
   07/10/2005 18:35:00     18.000     4.094    0.0755
   07/10/2005 18:40:00      4.800     1.149    0.0836
   07/10/2005 18:45:00     10.800     2.507    0.0643
   07/10/2005 18:50:00     25.200     5.652    0.0630
   07/10/2005 18:55:00     28.800     6.422    0.0896
   07/10/2005 19:00:00     54.000    11.713    0.1168
   07/10/2005 19:05:00     21.600     4.876    0.1969
   07/10/2005 19:10:00     10.800     2.507    0.1655
   07/10/2005 19:15:00      2.400     0.589    0.1252
   07/10/2005 19:20:00      1.200     0.301    0.0867
   07/10/2005 19:25:00      0.000     0.000    0.0630
   07/10/2005 19:30:00      0.000     0.000    0.0468
   07/10/2005 19:35:00      1.200     0.301    0.0364
   07/10/2005 19:40:00      0.000     0.000    0.0309
   07/10/2005 19:45:00      0.000     0.000    0.0255
   07/10/2005 19:50:00      0.000     0.000    0.0215
   07/10/2005 19:55:00      1.200     0.301    0.0185
   07/10/2005 20:00:00      8.400     1.969    0.0174
   07/10/2005 20:05:00      7.200     1.698    0.0244
   07/10/2005 20:10:00      2.400     0.589    0.0293
   07/10/2005 20:15:00      1.200     0.301    0.0271
   07/10/2005 20:20:00      2.400     0.589    0.0240
   07/10/2005 20:25:00      3.600     0.871    0.0230
   07/10/2005 20:30:00      3.600     0.871    0.0236
   07/10/2005 20:35:00      2.400     0.589    0.0240
   07/10/2005 20:40:00      1.200     0.301    0.0230
   07/10/2005 20:45:00      1.200     0.301    0.0208
   07/10/2005 20:50:00      0.000     0.000    0.0190
   07/10/2005 20:55:00      1.200     0.301    0.0164
   07/10/2005 21:00:00      1.200     0.301    0.0156
   07/10/2005 21:05:00      1.200     0.301    0.0148
   07/10/2005 21:10:00      1.200     0.301    0.0142
   07/10/2005 21:15:00      0.000     0.000    0.0137
   07/10/2005 21:20:00      0.000     0.000    0.0122
   07/10/2005 21:25:00      0.000     0.000    0.0109
   07/10/2005 21:30:00      0.000     0.000    0.0099
   07/10/2005 21:35:00      0.000     0.000    0.0090
   07/10/2005 21:40:00      0.000     0.000    0.0083
   07/10/2005 21:45:00      0.000     0.000    0.0077
   07/10/2005 21:50:00      0.000     0.000    0.0071
   07/10/2005 21:55:00      0.000     0.000    0.0067
   07/10/2005 22:00:00      0.000     0.000    0.0063
   07/10/2005 22:05:00      0.000     0.000    0.0059
   07/10/2005 22:10:00      0.000     0.000    0.0055
  
  
  <<< Subcatchment S8 >>>
  ---------------------------------------------------
  Date        Time        Precip.    Losses    Runoff
                            mm/hr     mm/hr       CMS
  ---------------------------------------------------
   07/10/2005 17:15:00      1.200     0.094    0.0000
   07/10/2005 17:20:00      3.600     0.274    0.0000
   07/10/2005 17:25:00      7.200     0.522    0.0000
   07/10/2005 17:30:00     10.800     0.722    0.0015
   07/10/2005 17:35:00      6.000     0.369    0.0051
   07/10/2005 17:40:00      3.600     0.214    0.0095
   07/10/2005 17:45:00      2.400     0.144    0.0126
   07/10/2005 17:50:00      3.600     0.212    0.0146
   07/10/2005 17:55:00      3.600     0.212    0.0181
   07/10/2005 18:00:00      3.600     0.212    0.0218
   07/10/2005 18:05:00      8.400     0.480    0.0256
   07/10/2005 18:10:00     21.600     1.189    0.0370
   07/10/2005 18:15:00     12.000     0.677    0.0761
   07/10/2005 18:20:00     24.000     1.316    0.0972
   07/10/2005 18:25:00     24.000     1.316    0.1509
   07/10/2005 18:30:00      7.200     0.414    0.2071
   07/10/2005 18:35:00     18.000     0.999    0.2054
   07/10/2005 18:40:00      4.800     0.280    0.2401
   07/10/2005 18:45:00     10.800     0.612    0.2262
   07/10/2005 18:50:00     25.200     1.379    0.2345
   07/10/2005 18:55:00     28.800     1.567    0.2935
   07/10/2005 19:00:00     54.000     2.857    0.3631
   07/10/2005 19:05:00     21.600     1.189    0.5399
   07/10/2005 19:10:00     10.800     0.612    0.5488
   07/10/2005 19:15:00      2.400     0.144    0.5066
   07/10/2005 19:20:00      1.200     0.073    0.4360
   07/10/2005 19:25:00      0.000     0.000    0.3750
   07/10/2005 19:30:00      0.000     0.000    0.3214
   07/10/2005 19:35:00      1.200     0.073    0.2781
   07/10/2005 19:40:00      0.000     0.000    0.2467
   07/10/2005 19:45:00      0.000     0.000    0.2166
   07/10/2005 19:50:00      0.000     0.000    0.1914
   07/10/2005 19:55:00      1.200     0.073    0.1702
   07/10/2005 20:00:00      8.400     0.480    0.1556
   07/10/2005 20:05:00      7.200     0.414    0.1639
   07/10/2005 20:10:00      2.400     0.144    0.1678
   07/10/2005 20:15:00      1.200     0.073    0.1571
   07/10/2005 20:20:00      2.400     0.144    0.1443
   07/10/2005 20:25:00      3.600     0.212    0.1365
   07/10/2005 20:30:00      3.600     0.212    0.1330
   07/10/2005 20:35:00      2.400     0.144    0.1298
   07/10/2005 20:40:00      1.200     0.073    0.1237
   07/10/2005 20:45:00      1.200     0.073    0.1152
   07/10/2005 20:50:00      0.000     0.000    0.1078
   07/10/2005 20:55:00      1.200     0.073    0.0982
   07/10/2005 21:00:00      1.200     0.073    0.0926
   07/10/2005 21:05:00      1.200     0.073    0.0876
   07/10/2005 21:10:00      1.200     0.073    0.0832
   07/10/2005 21:15:00      0.000     0.000    0.0792
   07/10/2005 21:20:00      0.000     0.000    0.0730
   07/10/2005 21:25:00      0.000     0.000    0.0674
   07/10/2005 21:30:00      0.000     0.000    0.0624
   07/10/2005 21:35:00      0.000     0.000    0.0579
   07/10/2005 21:40:00      0.000     0.000    0.0539
   07/10/2005 21:45:00      0.000     0.000    0.0503
   07/10/2005 21:50:00      0.000     0.000    0.0470
   07/10/2005 21:55:00      0.000     0.000    0.0439
   07/10/2005 22:00:00      0.000     0.000    0.0412
   07/10/2005 22:05:00      0.000     0.000    0.0387
   07/10/2005 22:10:00      0.000     0.000    0.0364
  
  
  <<< Subcatchment S9 >>>
  ---------------------------------------------------
  Date        Time        Precip.    Losses    Runoff
                            mm/hr     mm/hr       CMS
  ---------------------------------------------------
   07/10/2005 17:15:00      1.200     0.506    0.0000
   07/10/2005 17:20:00      3.600     1.476    0.0000
   07/10/2005 17:25:00      7.200     2.815    0.0000
   07/10/2005 17:30:00     10.800     3.898    0.0015
   07/10/2005 17:35:00      6.000     1.989    0.0050
   07/10/2005 17:40:00      3.600     1.153    0.0094
   07/10/2005 17:45:00      2.400     0.775    0.0123
   07/10/2005 17:50:00      3.600     1.146    0.0141
   07/10/2005 17:55:00      3.600     1.146    0.0174
   07/10/2005 18:00:00      3.600     1.146    0.0208
   07/10/2005 18:05:00      8.400     2.592    0.0242
   07/10/2005 18:10:00     21.600     6.419    0.0350
   07/10/2005 18:15:00     12.000     3.652    0.0725
   07/10/2005 18:20:00     24.000     7.100    0.0914
   07/10/2005 18:25:00     24.000     7.100    0.1412
   07/10/2005 18:30:00      7.200     2.235    0.1917
   07/10/2005 18:35:00     18.000     5.389    0.1857
   07/10/2005 18:40:00      4.800     1.513    0.2146
   07/10/2005 18:45:00     10.800     3.300    0.1975
   07/10/2005 18:50:00     25.200     7.440    0.2022
   07/10/2005 18:55:00     28.800     8.455    0.2542
   07/10/2005 19:00:00     54.000    15.419    0.3149
   07/10/2005 19:05:00     21.600     6.419    0.4741
   07/10/2005 19:10:00     10.800     3.300    0.4725
   07/10/2005 19:15:00      2.400     0.775    0.4260
   07/10/2005 19:20:00      1.200     0.397    0.3571
   07/10/2005 19:25:00      0.000     0.000    0.3002
   07/10/2005 19:30:00      0.000     0.000    0.2522
   07/10/2005 19:35:00      1.200     0.397    0.2146
   07/10/2005 19:40:00      0.000     0.000    0.1884
   07/10/2005 19:45:00      0.000     0.000    0.1636
   07/10/2005 19:50:00      0.000     0.000    0.1434
   07/10/2005 19:55:00      1.200     0.397    0.1267
   07/10/2005 20:00:00      8.400     2.592    0.1159
   07/10/2005 20:05:00      7.200     2.235    0.1249
   07/10/2005 20:10:00      2.400     0.775    0.1299
   07/10/2005 20:15:00      1.200     0.397    0.1218
   07/10/2005 20:20:00      2.400     0.775    0.1119
   07/10/2005 20:25:00      3.600     1.146    0.1063
   07/10/2005 20:30:00      3.600     1.146    0.1044
   07/10/2005 20:35:00      2.400     0.775    0.1028
   07/10/2005 20:40:00      1.200     0.397    0.0985
   07/10/2005 20:45:00      1.200     0.397    0.0920
   07/10/2005 20:50:00      0.000     0.000    0.0863
   07/10/2005 20:55:00      1.200     0.397    0.0788
   07/10/2005 21:00:00      1.200     0.397    0.0748
   07/10/2005 21:05:00      1.200     0.397    0.0713
   07/10/2005 21:10:00      1.200     0.397    0.0682
   07/10/2005 21:15:00      0.000     0.000    0.0654
   07/10/2005 21:20:00      0.000     0.000    0.0606
   07/10/2005 21:25:00      0.000     0.000    0.0564
   07/10/2005 21:30:00      0.000     0.000    0.0526
   07/10/2005 21:35:00      0.000     0.000    0.0493
   07/10/2005 21:40:00      0.000     0.000    0.0463
   07/10/2005 21:45:00      0.000     0.000    0.0437
   07/10/2005 21:50:00      0.000     0.000    0.0413
   07/10/2005 21:55:00      0.000     0.000    0.0391
   07/10/2005 22:00:00      0.000     0.000    0.0371
   07/10/2005 22:05:00      0.000     0.000    0.0353
   07/10/2005 22:10:00      0.000     0.000    0.0337
  
  
  <<< Subcatchment S10 >>>
  ---------------------------------------------------
  Date        Time        Precip.    Losses    Runoff
                            mm/hr     mm/hr       CMS
  ---------------------------------------------------
   07/10/2005 17:15:00      1.200     0.443    0.0000
   07/10/2005 17:20:00      3.600     1.292    0.0000
   07/10/2005 17:25:00      7.200     2.464    0.0003
   07/10/2005 17:30:00     10.800     3.411    0.0013
   07/10/2005 17:35:00      6.000     1.741    0.0042
   07/10/2005 17:40:00      3.600     1.009    0.0073
   07/10/2005 17:45:00      2.400     0.678    0.0085
   07/10/2005 17:50:00      3.600     1.003    0.0086
   07/10/2005 17:55:00      3.600     1.003    0.0098
   07/10/2005 18:00:00      3.600     1.003    0.0108
   07/10/2005 18:05:00      8.400     2.269    0.0116
   07/10/2005 18:10:00     21.600     5.618    0.0171
   07/10/2005 18:15:00     12.000     3.196    0.0391
   07/10/2005 18:20:00     24.000     6.214    0.0422
   07/10/2005 18:25:00     24.000     6.214    0.0632
   07/10/2005 18:30:00      7.200     1.956    0.0774
   07/10/2005 18:35:00     18.000     4.717    0.0573
   07/10/2005 18:40:00      4.800     1.324    0.0639
   07/10/2005 18:45:00     10.800     2.889    0.0469
   07/10/2005 18:50:00     25.200     6.512    0.0463
   07/10/2005 18:55:00     28.800     7.400    0.0697
   07/10/2005 19:00:00     54.000    13.495    0.0923
   07/10/2005 19:05:00     21.600     5.618    0.1597
   07/10/2005 19:10:00     10.800     2.889    0.1274
   07/10/2005 19:15:00      2.400     0.678    0.0925
   07/10/2005 19:20:00      1.200     0.347    0.0616
   07/10/2005 19:25:00      0.000     0.000    0.0439
   07/10/2005 19:30:00      0.000     0.000    0.0323
   07/10/2005 19:35:00      1.200     0.347    0.0251
   07/10/2005 19:40:00      0.000     0.000    0.0217
   07/10/2005 19:45:00      0.000     0.000    0.0180
   07/10/2005 19:50:00      0.000     0.000    0.0154
   07/10/2005 19:55:00      1.200     0.347    0.0135
   07/10/2005 20:00:00      8.400     2.269    0.0129
   07/10/2005 20:05:00      7.200     1.956    0.0191
   07/10/2005 20:10:00      2.400     0.678    0.0236
   07/10/2005 20:15:00      1.200     0.347    0.0216
   07/10/2005 20:20:00      2.400     0.678    0.0189
   07/10/2005 20:25:00      3.600     1.003    0.0182
   07/10/2005 20:30:00      3.600     1.003    0.0188
   07/10/2005 20:35:00      2.400     0.678    0.0193
   07/10/2005 20:40:00      1.200     0.347    0.0184
   07/10/2005 20:45:00      1.200     0.347    0.0165
   07/10/2005 20:50:00      0.000     0.000    0.0151
   07/10/2005 20:55:00      1.200     0.347    0.0129
   07/10/2005 21:00:00      1.200     0.347    0.0123
   07/10/2005 21:05:00      1.200     0.347    0.0118
   07/10/2005 21:10:00      1.200     0.347    0.0113
   07/10/2005 21:15:00      0.000     0.000    0.0109
   07/10/2005 21:20:00      0.000     0.000    0.0097
   07/10/2005 21:25:00      0.000     0.000    0.0087
   07/10/2005 21:30:00      0.000     0.000    0.0079
   07/10/2005 21:35:00      0.000     0.000    0.0072
   07/10/2005 21:40:00      0.000     0.000    0.0067
   07/10/2005 21:45:00      0.000     0.000    0.0062
   07/10/2005 21:50:00      0.000     0.000    0.0058
   07/10/2005 21:55:00      0.000     0.000    0.0054
   07/10/2005 22:00:00      0.000     0.000    0.0051
   07/10/2005 22:05:00      0.000     0.000    0.0048
   07/10/2005 22:10:00      0.000     0.000    0.0046
  
  
  <<< Subcatchment S11 >>>
  ---------------------------------------------------
  Date        Time        Precip.    Losses    Runoff
                            mm/hr     mm/hr       CMS
  ---------------------------------------------------
   07/10/2005 17:15:00      1.200     0.454    0.0000
   07/10/2005 17:20:00      3.600     1.324    0.0000
   07/10/2005 17:25:00      7.200     2.526    0.0000
   07/10/2005 17:30:00     10.800     3.497    0.0024
   07/10/2005 17:35:00      6.000     1.785    0.0082
   07/10/2005 17:40:00      3.600     1.034    0.0146
   07/10/2005 17:45:00      2.400     0.695    0.0182
   07/10/2005 17:50:00      3.600     1.028    0.0196
   07/10/2005 17:55:00      3.600     1.028    0.0232
   07/10/2005 18:00:00      3.600     1.028    0.0265
   07/10/2005 18:05:00      8.400     2.326    0.0295
   07/10/2005 18:10:00     21.600     5.759    0.0429
   07/10/2005 18:15:00     12.000     3.277    0.0926
   07/10/2005 18:20:00     24.000     6.371    0.1082
   07/10/2005 18:25:00     24.000     6.371    0.1633
   07/10/2005 18:30:00      7.200     2.005    0.2090
   07/10/2005 18:35:00     18.000     4.835    0.1757
   07/10/2005 18:40:00      4.800     1.357    0.1950
   07/10/2005 18:45:00     10.800     2.961    0.1580
   07/10/2005 18:50:00     25.200     6.675    0.1550
   07/10/2005 18:55:00     28.800     7.586    0.2094
   07/10/2005 19:00:00     54.000    13.835    0.2679
   07/10/2005 19:05:00     21.600     5.759    0.4372
   07/10/2005 19:10:00     10.800     2.961    0.3883
   07/10/2005 19:15:00      2.400     0.695    0.3087
   07/10/2005 19:20:00      1.200     0.356    0.2254
   07/10/2005 19:25:00      0.000     0.000    0.1699
   07/10/2005 19:30:00      0.000     0.000    0.1300
   07/10/2005 19:35:00      1.200     0.356    0.1030
   07/10/2005 19:40:00      0.000     0.000    0.0876
   07/10/2005 19:45:00      0.000     0.000    0.0729
   07/10/2005 19:50:00      0.000     0.000    0.0620
   07/10/2005 19:55:00      1.200     0.356    0.0536
   07/10/2005 20:00:00      8.400     2.326    0.0498
   07/10/2005 20:05:00      7.200     2.005    0.0638
   07/10/2005 20:10:00      2.400     0.695    0.0734
   07/10/2005 20:15:00      1.200     0.356    0.0685
   07/10/2005 20:20:00      2.400     0.695    0.0617
   07/10/2005 20:25:00      3.600     1.028    0.0592
   07/10/2005 20:30:00      3.600     1.028    0.0601
   07/10/2005 20:35:00      2.400     0.695    0.0609
   07/10/2005 20:40:00      1.200     0.356    0.0585
   07/10/2005 20:45:00      1.200     0.356    0.0538
   07/10/2005 20:50:00      0.000     0.000    0.0499
   07/10/2005 20:55:00      1.200     0.356    0.0442
   07/10/2005 21:00:00      1.200     0.356    0.0421
   07/10/2005 21:05:00      1.200     0.356    0.0402
   07/10/2005 21:10:00      1.200     0.356    0.0387
   07/10/2005 21:15:00      0.000     0.000    0.0373
   07/10/2005 21:20:00      0.000     0.000    0.0339
   07/10/2005 21:25:00      0.000     0.000    0.0310
   07/10/2005 21:30:00      0.000     0.000    0.0286
   07/10/2005 21:35:00      0.000     0.000    0.0265
   07/10/2005 21:40:00      0.000     0.000    0.0248
   07/10/2005 21:45:00      0.000     0.000    0.0232
   07/10/2005 21:50:00      0.000     0.000    0.0218
   07/10/2005 21:55:00      0.000     0.000    0.0206
   07/10/2005 22:00:00      0.000     0.000    0.0195
   07/10/2005 22:05:00      0.000     0.000    0.0186
   07/10/2005 22:10:00      0.000     0.000    0.0177
  
  
  <<< Subcatchment S12 >>>
  ---------------------------------------------------
  Date        Time        Precip.    Losses    Runoff
                            mm/hr     mm/hr       CMS
  ---------------------------------------------------
   07/10/2005 17:15:00      1.200     0.209    0.0000
   07/10/2005 17:20:00      3.600     0.609    0.0000
   07/10/2005 17:25:00      7.200     1.162    0.0000
   07/10/2005 17:30:00     10.800     1.609    0.0015
   07/10/2005 17:35:00      6.000     0.821    0.0050
   07/10/2005 17:40:00      3.600     0.476    0.0094
   07/10/2005 17:45:00      2.400     0.320    0.0124
   07/10/2005 17:50:00      3.600     0.473    0.0143
   07/10/2005 17:55:00      3.600     0.473    0.0177
   07/10/2005 18:00:00      3.600     0.473    0.0212
   07/10/2005 18:05:00      8.400     1.070    0.0248
   07/10/2005 18:10:00     21.600     2.650    0.0358
   07/10/2005 18:15:00     12.000     1.508    0.0739
   07/10/2005 18:20:00     24.000     2.931    0.0936
   07/10/2005 18:25:00     24.000     2.931    0.1450
   07/10/2005 18:30:00      7.200     0.923    0.1976
   07/10/2005 18:35:00     18.000     2.225    0.1932
   07/10/2005 18:40:00      4.800     0.624    0.2242
   07/10/2005 18:45:00     10.800     1.363    0.2083
   07/10/2005 18:50:00     25.200     3.072    0.2142
   07/10/2005 18:55:00     28.800     3.490    0.2687
   07/10/2005 19:00:00     54.000     6.366    0.3326
   07/10/2005 19:05:00     21.600     2.650    0.4982
   07/10/2005 19:10:00     10.800     1.363    0.5003
   07/10/2005 19:15:00      2.400     0.320    0.4551
   07/10/2005 19:20:00      1.200     0.164    0.3852
   07/10/2005 19:25:00      0.000     0.000    0.3266
   07/10/2005 19:30:00      0.000     0.000    0.2763
   07/10/2005 19:35:00      1.200     0.164    0.2364
   07/10/2005 19:40:00      0.000     0.000    0.2082
   07/10/2005 19:45:00      0.000     0.000    0.1813
   07/10/2005 19:50:00      0.000     0.000    0.1592
   07/10/2005 19:55:00      1.200     0.164    0.1408
   07/10/2005 20:00:00      8.400     1.070    0.1285
   07/10/2005 20:05:00      7.200     0.923    0.1372
   07/10/2005 20:10:00      2.400     0.320    0.1418
   07/10/2005 20:15:00      1.200     0.164    0.1326
   07/10/2005 20:20:00      2.400     0.320    0.1216
   07/10/2005 20:25:00      3.600     0.473    0.1152
   07/10/2005 20:30:00      3.600     0.473    0.1126
   07/10/2005 20:35:00      2.400     0.320    0.1104
   07/10/2005 20:40:00      1.200     0.164    0.1054
   07/10/2005 20:45:00      1.200     0.164    0.0981
   07/10/2005 20:50:00      0.000     0.000    0.0917
   07/10/2005 20:55:00      1.200     0.164    0.0834
   07/10/2005 21:00:00      1.200     0.164    0.0788
   07/10/2005 21:05:00      1.200     0.164    0.0747
   07/10/2005 21:10:00      1.200     0.164    0.0710
   07/10/2005 21:15:00      0.000     0.000    0.0678
   07/10/2005 21:20:00      0.000     0.000    0.0624
   07/10/2005 21:25:00      0.000     0.000    0.0577
   07/10/2005 21:30:00      0.000     0.000    0.0535
   07/10/2005 21:35:00      0.000     0.000    0.0497
   07/10/2005 21:40:00      0.000     0.000    0.0463
   07/10/2005 21:45:00      0.000     0.000    0.0432
   07/10/2005 21:50:00      0.000     0.000    0.0405
   07/10/2005 21:55:00      0.000     0.000    0.0380
   07/10/2005 22:00:00      0.000     0.000    0.0357
   07/10/2005 22:05:00      0.000     0.000    0.0336
   07/10/2005 22:10:00      0.000     0.000    0.0317
  
  
  <<< Subcatchment S13 >>>
  ---------------------------------------------------
  Date        Time        Precip.    Losses    Runoff
                            mm/hr     mm/hr       CMS
  ---------------------------------------------------
   07/10/2005 17:15:00      1.200     0.197    0.0000
   07/10/2005 17:20:00      3.600     0.574    0.0000
   07/10/2005 17:25:00      7.200     1.095    0.0000
   07/10/2005 17:30:00     10.800     1.516    0.0018
   07/10/2005 17:35:00      6.000     0.774    0.0062
   07/10/2005 17:40:00      3.600     0.448    0.0116
   07/10/2005 17:45:00      2.400     0.301    0.0151
   07/10/2005 17:50:00      3.600     0.446    0.0172
   07/10/2005 17:55:00      3.600     0.446    0.0211
   07/10/2005 18:00:00      3.600     0.446    0.0251
   07/10/2005 18:05:00      8.400     1.008    0.0291
   07/10/2005 18:10:00     21.600     2.497    0.0420
   07/10/2005 18:15:00     12.000     1.421    0.0872
   07/10/2005 18:20:00     24.000     2.762    0.1091
   07/10/2005 18:25:00     24.000     2.762    0.1679
   07/10/2005 18:30:00      7.200     0.869    0.2261
   07/10/2005 18:35:00     18.000     2.096    0.2152
   07/10/2005 18:40:00      4.800     0.588    0.2468
   07/10/2005 18:45:00     10.800     1.284    0.2233
   07/10/2005 18:50:00     25.200     2.894    0.2266
   07/10/2005 18:55:00     28.800     3.289    0.2862
   07/10/2005 19:00:00     54.000     5.998    0.3552
   07/10/2005 19:05:00     21.600     2.497    0.5396
   07/10/2005 19:10:00     10.800     1.284    0.5295
   07/10/2005 19:15:00      2.400     0.301    0.4686
   07/10/2005 19:20:00      1.200     0.154    0.3844
   07/10/2005 19:25:00      0.000     0.000    0.3170
   07/10/2005 19:30:00      0.000     0.000    0.2615
   07/10/2005 19:35:00      1.200     0.154    0.2190
   07/10/2005 19:40:00      0.000     0.000    0.1900
   07/10/2005 19:45:00      0.000     0.000    0.1628
   07/10/2005 19:50:00      0.000     0.000    0.1409
   07/10/2005 19:55:00      1.200     0.154    0.1230
   07/10/2005 20:00:00      8.400     1.008    0.1117
   07/10/2005 20:05:00      7.200     0.869    0.1228
   07/10/2005 20:10:00      2.400     0.301    0.1292
   07/10/2005 20:15:00      1.200     0.154    0.1204
   07/10/2005 20:20:00      2.400     0.301    0.1095
   07/10/2005 20:25:00      3.600     0.446    0.1036
   07/10/2005 20:30:00      3.600     0.446    0.1019
   07/10/2005 20:35:00      2.400     0.301    0.1003
   07/10/2005 20:40:00      1.200     0.154    0.0957
   07/10/2005 20:45:00      1.200     0.154    0.0886
   07/10/2005 20:50:00      0.000     0.000    0.0824
   07/10/2005 20:55:00      1.200     0.154    0.0742
   07/10/2005 21:00:00      1.200     0.154    0.0699
   07/10/2005 21:05:00      1.200     0.154    0.0661
   07/10/2005 21:10:00      1.200     0.154    0.0628
   07/10/2005 21:15:00      0.000     0.000    0.0599
   07/10/2005 21:20:00      0.000     0.000    0.0547
   07/10/2005 21:25:00      0.000     0.000    0.0501
   07/10/2005 21:30:00      0.000     0.000    0.0461
   07/10/2005 21:35:00      0.000     0.000    0.0425
   07/10/2005 21:40:00      0.000     0.000    0.0394
   07/10/2005 21:45:00      0.000     0.000    0.0366
   07/10/2005 21:50:00      0.000     0.000    0.0340
   07/10/2005 21:55:00      0.000     0.000    0.0318
   07/10/2005 22:00:00      0.000     0.000    0.0297
   07/10/2005 22:05:00      0.000     0.000    0.0278
   07/10/2005 22:10:00      0.000     0.000    0.0262
  
  
  <<< Subcatchment S14 >>>
  ---------------------------------------------------
  Date        Time        Precip.    Losses    Runoff
                            mm/hr     mm/hr       CMS
  ---------------------------------------------------
   07/10/2005 17:15:00      1.200     0.392    0.0000
   07/10/2005 17:20:00      3.600     1.143    0.0000
   07/10/2005 17:25:00      7.200     2.180    0.0000
   07/10/2005 17:30:00     10.800     3.018    0.0015
   07/10/2005 17:35:00      6.000     1.540    0.0050
   07/10/2005 17:40:00      3.600     0.893    0.0093
   07/10/2005 17:45:00      2.400     0.600    0.0122
   07/10/2005 17:50:00      3.600     0.888    0.0139
   07/10/2005 17:55:00      3.600     0.888    0.0171
   07/10/2005 18:00:00      3.600     0.888    0.0203
   07/10/2005 18:05:00      8.400     2.007    0.0236
   07/10/2005 18:10:00     21.600     4.970    0.0340
   07/10/2005 18:15:00     12.000     2.828    0.0706
   07/10/2005 18:20:00     24.000     5.498    0.0885
   07/10/2005 18:25:00     24.000     5.498    0.1364
   07/10/2005 18:30:00      7.200     1.730    0.1842
   07/10/2005 18:35:00     18.000     4.173    0.1762
   07/10/2005 18:40:00      4.800     1.171    0.2026
   07/10/2005 18:45:00     10.800     2.556    0.1843
   07/10/2005 18:50:00     25.200     5.761    0.1875
   07/10/2005 18:55:00     28.800     6.546    0.2364
   07/10/2005 19:00:00     54.000    11.939    0.2933
   07/10/2005 19:05:00     21.600     4.970    0.4444
   07/10/2005 19:10:00     10.800     2.556    0.4383
   07/10/2005 19:15:00      2.400     0.600    0.3903
   07/10/2005 19:20:00      1.200     0.307    0.3226
   07/10/2005 19:25:00      0.000     0.000    0.2679
   07/10/2005 19:30:00      0.000     0.000    0.2225
   07/10/2005 19:35:00      1.200     0.307    0.1875
   07/10/2005 19:40:00      0.000     0.000    0.1635
   07/10/2005 19:45:00      0.000     0.000    0.1410
   07/10/2005 19:50:00      0.000     0.000    0.1228
   07/10/2005 19:55:00      1.200     0.307    0.1079
   07/10/2005 20:00:00      8.400     2.007    0.0984
   07/10/2005 20:05:00      7.200     1.730    0.1075
   07/10/2005 20:10:00      2.400     0.600    0.1127
   07/10/2005 20:15:00      1.200     0.307    0.1054
   07/10/2005 20:20:00      2.400     0.600    0.0965
   07/10/2005 20:25:00      3.600     0.888    0.0916
   07/10/2005 20:30:00      3.600     0.888    0.0902
   07/10/2005 20:35:00      2.400     0.600    0.0889
   07/10/2005 20:40:00      1.200     0.307    0.0851
   07/10/2005 20:45:00      1.200     0.307    0.0792
   07/10/2005 20:50:00      0.000     0.000    0.0742
   07/10/2005 20:55:00      1.200     0.307    0.0674
   07/10/2005 21:00:00      1.200     0.307    0.0638
   07/10/2005 21:05:00      1.200     0.307    0.0607
   07/10/2005 21:10:00      1.200     0.307    0.0580
   07/10/2005 21:15:00      0.000     0.000    0.0555
   07/10/2005 21:20:00      0.000     0.000    0.0512
   07/10/2005 21:25:00      0.000     0.000    0.0474
   07/10/2005 21:30:00      0.000     0.000    0.0441
   07/10/2005 21:35:00      0.000     0.000    0.0411
   07/10/2005 21:40:00      0.000     0.000    0.0385
   07/10/2005 21:45:00      0.000     0.000    0.0361
   07/10/2005 21:50:00      0.000     0.000    0.0340
   07/10/2005 21:55:00      0.000     0.000    0.0321
   07/10/2005 22:00:00      0.000     0.000    0.0304
   07/10/2005 22:05:00      0.000     0.000    0.0288
   07/10/2005 22:10:00      0.000     0.000    0.0273
  
  
  <<< Subcatchment S15 >>>
  ---------------------------------------------------
  Date        Time        Precip.    Losses    Runoff
                            mm/hr     mm/hr       CMS
  ---------------------------------------------------
   07/10/2005 17:15:00      1.200     0.311    0.0000
   07/10/2005 17:20:00      3.600     0.907    0.0000
   07/10/2005 17:25:00      7.200     1.730    0.0000
   07/10/2005 17:30:00     10.800     2.396    0.0014
   07/10/2005 17:35:00      6.000     1.223    0.0050
   07/10/2005 17:40:00      3.600     0.709    0.0092
   07/10/2005 17:45:00      2.400     0.476    0.0120
   07/10/2005 17:50:00      3.600     0.705    0.0136
   07/10/2005 17:55:00      3.600     0.705    0.0167
   07/10/2005 18:00:00      3.600     0.705    0.0198
   07/10/2005 18:05:00      8.400     1.593    0.0228
   07/10/2005 18:10:00     21.600     3.945    0.0330
   07/10/2005 18:15:00     12.000     2.245    0.0686
   07/10/2005 18:20:00     24.000     4.364    0.0854
   07/10/2005 18:25:00     24.000     4.364    0.1313
   07/10/2005 18:30:00      7.200     1.374    0.1762
   07/10/2005 18:35:00     18.000     3.313    0.1663
   07/10/2005 18:40:00      4.800     0.930    0.1902
   07/10/2005 18:45:00     10.800     2.029    0.1707
   07/10/2005 18:50:00     25.200     4.573    0.1726
   07/10/2005 18:55:00     28.800     5.197    0.2186
   07/10/2005 19:00:00     54.000     9.478    0.2717
   07/10/2005 19:05:00     21.600     3.945    0.4148
   07/10/2005 19:10:00     10.800     2.029    0.4045
   07/10/2005 19:15:00      2.400     0.476    0.3554
   07/10/2005 19:20:00      1.200     0.244    0.2893
   07/10/2005 19:25:00      0.000     0.000    0.2371
   07/10/2005 19:30:00      0.000     0.000    0.1946
   07/10/2005 19:35:00      1.200     0.244    0.1623
   07/10/2005 19:40:00      0.000     0.000    0.1406
   07/10/2005 19:45:00      0.000     0.000    0.1203
   07/10/2005 19:50:00      0.000     0.000    0.1040
   07/10/2005 19:55:00      1.200     0.244    0.0909
   07/10/2005 20:00:00      8.400     1.593    0.0827
   07/10/2005 20:05:00      7.200     1.374    0.0917
   07/10/2005 20:10:00      2.400     0.476    0.0970
   07/10/2005 20:15:00      1.200     0.244    0.0906
   07/10/2005 20:20:00      2.400     0.476    0.0826
   07/10/2005 20:25:00      3.600     0.705    0.0784
   07/10/2005 20:30:00      3.600     0.705    0.0773
   07/10/2005 20:35:00      2.400     0.476    0.0764
   07/10/2005 20:40:00      1.200     0.244    0.0730
   07/10/2005 20:45:00      1.200     0.244    0.0677
   07/10/2005 20:50:00      0.000     0.000    0.0632
   07/10/2005 20:55:00      1.200     0.244    0.0570
   07/10/2005 21:00:00      1.200     0.244    0.0539
   07/10/2005 21:05:00      1.200     0.244    0.0512
   07/10/2005 21:10:00      1.200     0.244    0.0488
   07/10/2005 21:15:00      0.000     0.000    0.0467
   07/10/2005 21:20:00      0.000     0.000    0.0428
   07/10/2005 21:25:00      0.000     0.000    0.0394
   07/10/2005 21:30:00      0.000     0.000    0.0364
   07/10/2005 21:35:00      0.000     0.000    0.0338
   07/10/2005 21:40:00      0.000     0.000    0.0315
   07/10/2005 21:45:00      0.000     0.000    0.0294
   07/10/2005 21:50:00      0.000     0.000    0.0275
   07/10/2005 21:55:00      0.000     0.000    0.0258
   07/10/2005 22:00:00      0.000     0.000    0.0243
   07/10/2005 22:05:00      0.000     0.000    0.0229
   07/10/2005 22:10:00      0.000     0.000    0.0217
  
  
  ************
  Node Results
  ************
  
  <<< Node J0 >>>
  ----------------------------------------------------------------
                           Inflow  Flooding     Depth      Head
  Date        Time            CMS       CMS    meters    meters
  ----------------------------------------------------------------
   07/10/2005 17:15:00      0.000     0.000     0.011    31.001
   07/10/2005 17:20:00      0.000     0.000     0.006    30.996
   07/10/2005 17:25:00      0.000     0.000     0.005    30.995
   07/10/2005 17:30:00      0.001     0.000     0.012    31.002
   07/10/2005 17:35:00      0.005     0.000     0.024    31.014
   07/10/2005 17:40:00      0.009     0.000     0.035    31.025
   07/10/2005 17:45:00      0.012     0.000     0.040    31.030
[...]
   07/10/2005 17:55:00      0.034     0.801     0.070     0.006
   07/10/2005 18:00:00      0.045     0.858     0.080     0.007
   07/10/2005 18:05:00      0.055     0.907     0.089     0.009
   07/10/2005 18:10:00      0.067     0.955     0.098     0.010
   07/10/2005 18:15:00      0.095     1.053     0.116     0.013
   07/10/2005 18:20:00      0.172     1.265     0.152     0.019
   07/10/2005 18:25:00      0.261     1.434     0.186     0.026
   07/10/2005 18:30:00      0.391     1.616     0.225     0.034
   07/10/2005 18:35:00      0.502     1.753     0.253     0.041
   07/10/2005 18:40:00      0.513     1.743     0.257     0.042
   07/10/2005 18:45:00      0.529     1.760     0.261     0.042
   07/10/2005 18:50:00      0.497     1.718     0.254     0.041
   07/10/2005 18:55:00      0.514     1.728     0.259     0.042
   07/10/2005 19:00:00      0.634     1.847     0.285     0.049
   07/10/2005 19:05:00      0.868     2.018     0.333     0.061
   07/10/2005 19:10:00      1.179     2.253     0.381     0.074
   07/10/2005 19:15:00      1.123     2.202     0.375     0.072
   07/10/2005 19:20:00      0.960     2.093     0.348     0.065
   07/10/2005 19:25:00      0.778     1.956     0.316     0.056
   07/10/2005 19:30:00      0.633     1.834     0.287     0.049
   07/10/2005 19:35:00      0.521     1.725     0.262     0.043
   07/10/2005 19:40:00      0.437     1.641     0.241     0.038
   07/10/2005 19:45:00      0.376     1.562     0.225     0.034
   07/10/2005 19:50:00      0.325     1.492     0.209     0.031
   07/10/2005 19:55:00      0.282     1.430     0.196     0.028
   07/10/2005 20:00:00      0.249     1.379     0.185     0.026
   07/10/2005 20:05:00      0.233     1.353     0.179     0.024
   07/10/2005 20:10:00      0.243     1.374     0.183     0.025
   07/10/2005 20:15:00      0.258     1.408     0.187     0.026
   07/10/2005 20:20:00      0.253     1.400     0.185     0.026
   07/10/2005 20:25:00      0.237     1.377     0.180     0.024
   07/10/2005 20:30:00      0.225     1.350     0.175     0.024
   07/10/2005 20:35:00      0.219     1.340     0.173     0.023
   07/10/2005 20:40:00      0.216     1.335     0.171     0.023
   07/10/2005 20:45:00      0.209     1.323     0.169     0.022
   07/10/2005 20:50:00      0.197     1.299     0.164     0.022
   07/10/2005 20:55:00      0.184     1.271     0.159     0.020
   07/10/2005 21:00:00      0.170     1.238     0.152     0.019
   07/10/2005 21:05:00      0.158     1.212     0.148     0.018
   07/10/2005 21:10:00      0.150     1.193     0.144     0.018
   07/10/2005 21:15:00      0.143     1.177     0.140     0.017
   07/10/2005 21:20:00      0.136     1.162     0.137     0.017
   07/10/2005 21:25:00      0.128     1.141     0.133     0.016
   07/10/2005 21:30:00      0.119     1.116     0.129     0.015
   07/10/2005 21:35:00      0.110     1.093     0.125     0.014
   07/10/2005 21:40:00      0.102     1.073     0.121     0.014
   07/10/2005 21:45:00      0.096     1.052     0.117     0.013
   07/10/2005 21:50:00      0.090     1.031     0.113     0.012
   07/10/2005 21:55:00      0.084     1.013     0.110     0.012
   07/10/2005 22:00:00      0.080     0.996     0.107     0.011
   07/10/2005 22:05:00      0.075     0.980     0.104     0.011
   07/10/2005 22:10:00      0.071     0.965     0.101     0.010
  
  
  <<< Link C21 >>>
  ----------------------------------------------------------------
                             Flow  Velocity     Depth  Capacity/
  Date        Time            CMS     m/sec    meters   Setting 
  ----------------------------------------------------------------
   07/10/2005 17:15:00      0.000     0.000     0.000     0.000
   07/10/2005 17:20:00      0.000     0.000     0.001     0.000
   07/10/2005 17:25:00      0.000     0.398     0.004     0.001
   07/10/2005 17:30:00      0.001     0.607     0.010     0.002
   07/10/2005 17:35:00      0.003     0.928     0.020     0.005
   07/10/2005 17:40:00      0.008     1.050     0.032     0.010
   07/10/2005 17:45:00      0.011     0.961     0.043     0.015
   07/10/2005 17:50:00      0.013     0.833     0.052     0.020
   07/10/2005 17:55:00      0.016     0.819     0.060     0.025
   07/10/2005 18:00:00      0.019     0.833     0.067     0.029
   07/10/2005 18:05:00      0.022     0.856     0.073     0.033
   07/10/2005 18:10:00      0.030     1.002     0.082     0.039
   07/10/2005 18:15:00      0.061     1.399     0.104     0.055
   07/10/2005 18:20:00      0.082     1.381     0.129     0.076
   07/10/2005 18:25:00      0.122     1.546     0.157     0.101
   07/10/2005 18:30:00      0.168     1.660     0.187     0.129
   07/10/2005 18:35:00      0.168     1.517     0.199     0.141
   07/10/2005 18:40:00      0.186     1.618     0.204     0.146
   07/10/2005 18:45:00      0.174     1.529     0.203     0.145
   07/10/2005 18:50:00      0.172     1.554     0.199     0.141
   07/10/2005 18:55:00      0.211     1.766     0.209     0.152
   07/10/2005 19:00:00      0.264     1.901     0.233     0.177
   07/10/2005 19:05:00      0.395     2.220     0.277     0.226
   07/10/2005 19:10:00      0.406     2.033     0.302     0.254
   07/10/2005 19:15:00      0.362     1.915     0.290     0.241
   07/10/2005 19:20:00      0.299     1.780     0.267     0.214
   07/10/2005 19:25:00      0.245     1.680     0.241     0.186
   07/10/2005 19:30:00      0.202     1.586     0.219     0.162
   07/10/2005 19:35:00      0.168     1.504     0.200     0.142
   07/10/2005 19:40:00      0.144     1.445     0.185     0.127
   07/10/2005 19:45:00      0.124     1.379     0.172     0.115
   07/10/2005 19:50:00      0.107     1.318     0.160     0.104
   07/10/2005 19:55:00      0.094     1.265     0.150     0.094
   07/10/2005 20:00:00      0.085     1.233     0.142     0.087
   07/10/2005 20:05:00      0.090     1.322     0.141     0.086
   07/10/2005 20:10:00      0.096     1.360     0.145     0.090
   07/10/2005 20:15:00      0.092     1.289     0.146     0.091
   07/10/2005 20:20:00      0.084     1.221     0.143     0.088
   07/10/2005 20:25:00      0.079     1.200     0.139     0.084
   07/10/2005 20:30:00      0.078     1.206     0.136     0.082
   07/10/2005 20:35:00      0.077     1.208     0.135     0.081
   07/10/2005 20:40:00      0.074     1.184     0.133     0.079
   07/10/2005 20:45:00      0.069     1.143     0.130     0.077
   07/10/2005 20:50:00      0.064     1.113     0.126     0.073
   07/10/2005 20:55:00      0.058     1.072     0.122     0.069
   07/10/2005 21:00:00      0.055     1.055     0.117     0.066
   07/10/2005 21:05:00      0.052     1.044     0.114     0.063
   07/10/2005 21:10:00      0.049     1.030     0.111     0.061
   07/10/2005 21:15:00      0.047     1.015     0.109     0.059
   07/10/2005 21:20:00      0.044     0.981     0.106     0.057
   07/10/2005 21:25:00      0.040     0.949     0.102     0.054
   07/10/2005 21:30:00      0.037     0.924     0.099     0.051
   07/10/2005 21:35:00      0.034     0.899     0.096     0.049
   07/10/2005 21:40:00      0.032     0.876     0.093     0.047
   07/10/2005 21:45:00      0.030     0.857     0.090     0.044
   07/10/2005 21:50:00      0.028     0.839     0.087     0.043
   07/10/2005 21:55:00      0.026     0.822     0.085     0.041
   07/10/2005 22:00:00      0.025     0.808     0.082     0.039
   07/10/2005 22:05:00      0.023     0.795     0.080     0.037
   07/10/2005 22:10:00      0.022     0.779     0.078     0.036
  
  
  <<< Link C23 >>>
  ----------------------------------------------------------------
                             Flow  Velocity     Depth  Capacity/
  Date        Time            CMS     m/sec    meters   Setting 
  ----------------------------------------------------------------
   07/10/2005 17:15:00      0.068     1.002     0.090     0.007
   07/10/2005 17:20:00      0.059     1.002     0.082     0.006
   07/10/2005 17:25:00      0.044     0.984     0.069     0.004
   07/10/2005 17:30:00      0.033     0.937     0.057     0.003
   07/10/2005 17:35:00      0.025     0.887     0.049     0.003
   07/10/2005 17:40:00      0.022     0.867     0.046     0.003
   07/10/2005 17:45:00      0.028     0.903     0.052     0.003
   07/10/2005 17:50:00      0.049     0.988     0.073     0.005
   07/10/2005 17:55:00      0.091     1.005     0.109     0.009
   07/10/2005 18:00:00      0.141     1.039     0.144     0.013
   07/10/2005 18:05:00      0.189     1.128     0.164     0.016
   07/10/2005 18:10:00      0.236     1.207     0.182     0.019
   07/10/2005 18:15:00      0.308     1.310     0.207     0.023
   07/10/2005 18:20:00      0.510     1.514     0.264     0.033
   07/10/2005 18:25:00      0.869     1.792     0.338     0.048
   07/10/2005 18:30:00      1.360     2.043     0.420     0.065
   07/10/2005 18:35:00      1.939     2.286     0.497     0.083
   07/10/2005 18:40:00      2.158     2.384     0.519     0.089
   07/10/2005 18:45:00      2.243     2.412     0.529     0.091
   07/10/2005 18:50:00      2.180     2.395     0.521     0.089
   07/10/2005 18:55:00      2.147     2.379     0.518     0.089
   07/10/2005 19:00:00      2.492     2.464     0.560     0.099
   07/10/2005 19:05:00      3.281     2.657     0.644     0.121
   07/10/2005 19:10:00      4.710     2.966     0.768     0.156
   07/10/2005 19:15:00      4.957     3.046     0.781     0.160
   07/10/2005 19:20:00      4.370     2.938     0.733     0.146
   07/10/2005 19:25:00      3.630     2.783     0.669     0.128
   07/10/2005 19:30:00      2.977     2.625     0.607     0.111
   07/10/2005 19:35:00      2.464     2.480     0.554     0.098
   07/10/2005 19:40:00      2.063     2.356     0.508     0.086
   07/10/2005 19:45:00      1.772     2.247     0.472     0.077
   07/10/2005 19:50:00      1.538     2.159     0.440     0.070
   07/10/2005 19:55:00      1.339     2.067     0.412     0.064
   07/10/2005 20:00:00      1.176     1.986     0.388     0.058
   07/10/2005 20:05:00      1.069     1.943     0.369     0.054
   07/10/2005 20:10:00      1.053     1.928     0.367     0.054
   07/10/2005 20:15:00      1.107     1.952     0.376     0.056
   07/10/2005 20:20:00      1.120     1.963     0.378     0.056
   07/10/2005 20:25:00      1.067     1.941     0.369     0.054
   07/10/2005 20:30:00      1.005     1.909     0.358     0.052
   07/10/2005 20:35:00      0.966     1.885     0.352     0.050
   07/10/2005 20:40:00      0.945     1.871     0.348     0.050
   07/10/2005 20:45:00      0.921     1.857     0.343     0.049
   07/10/2005 20:50:00      0.879     1.831     0.336     0.047
   07/10/2005 20:55:00      0.824     1.795     0.326     0.045
   07/10/2005 21:00:00      0.761     1.745     0.315     0.043
   07/10/2005 21:05:00      0.707     1.701     0.305     0.041
   07/10/2005 21:10:00      0.664     1.672     0.296     0.039
   07/10/2005 21:15:00      0.629     1.647     0.289     0.038
   07/10/2005 21:20:00      0.600     1.622     0.282     0.036
   07/10/2005 21:25:00      0.567     1.593     0.275     0.035
   07/10/2005 21:30:00      0.529     1.558     0.266     0.033
   07/10/2005 21:35:00      0.491     1.522     0.256     0.032
   07/10/2005 21:40:00      0.456     1.487     0.248     0.030
   07/10/2005 21:45:00      0.424     1.455     0.239     0.029
   07/10/2005 21:50:00      0.396     1.426     0.232     0.027
   07/10/2005 21:55:00      0.370     1.399     0.225     0.026
   07/10/2005 22:00:00      0.347     1.375     0.218     0.025
   07/10/2005 22:05:00      0.328     1.350     0.212     0.024
   07/10/2005 22:10:00      0.310     1.324     0.206     0.023
  
  
  <<< Link C24 >>>
  ----------------------------------------------------------------
                             Flow  Velocity     Depth  Capacity/
  Date        Time            CMS     m/sec    meters   Setting 
  ----------------------------------------------------------------
   07/10/2005 17:15:00      0.000     0.000     0.000     0.000
   07/10/2005 17:20:00      0.000     0.000     0.001     0.000
   07/10/2005 17:25:00      0.000     0.180     0.004     0.001
   07/10/2005 17:30:00      0.001     0.382     0.010     0.002
   07/10/2005 17:35:00      0.003     0.588     0.022     0.005
   07/10/2005 17:40:00      0.007     0.701     0.038     0.011
   07/10/2005 17:45:00      0.011     0.717     0.050     0.016
   07/10/2005 17:50:00      0.013     0.712     0.056     0.020
   07/10/2005 17:55:00      0.016     0.745     0.062     0.022
   07/10/2005 18:00:00      0.019     0.797     0.067     0.025
   07/10/2005 18:05:00      0.022     0.837     0.072     0.028
   07/10/2005 18:10:00      0.030     0.939     0.082     0.034
   07/10/2005 18:15:00      0.059     1.193     0.110     0.052
   07/10/2005 18:20:00      0.084     1.275     0.133     0.069
   07/10/2005 18:25:00      0.123     1.454     0.159     0.089
   07/10/2005 18:30:00      0.173     1.608     0.187     0.113
   07/10/2005 18:35:00      0.178     1.606     0.191     0.117
   07/10/2005 18:40:00      0.196     1.695     0.197     0.122
   07/10/2005 18:45:00      0.189     1.670     0.194     0.119
   07/10/2005 18:50:00      0.186     1.691     0.191     0.116
   07/10/2005 18:55:00      0.225     1.814     0.207     0.131
   07/10/2005 19:00:00      0.281     1.924     0.232     0.154
   07/10/2005 19:05:00      0.416     2.162     0.282     0.202
   07/10/2005 19:10:00      0.439     2.165     0.293     0.213
   07/10/2005 19:15:00      0.399     2.123     0.277     0.198
   07/10/2005 19:20:00      0.336     2.035     0.253     0.174
   07/10/2005 19:25:00      0.279     1.945     0.229     0.151
   07/10/2005 19:30:00      0.233     1.850     0.209     0.132
   07/10/2005 19:35:00      0.196     1.766     0.191     0.117
   07/10/2005 19:40:00      0.169     1.699     0.178     0.105
   07/10/2005 19:45:00      0.147     1.627     0.166     0.095
   07/10/2005 19:50:00      0.127     1.560     0.155     0.086
   07/10/2005 19:55:00      0.112     1.497     0.146     0.079
   07/10/2005 20:00:00      0.101     1.450     0.139     0.073
   07/10/2005 20:05:00      0.105     1.478     0.141     0.075
   07/10/2005 20:10:00      0.111     1.491     0.146     0.079
   07/10/2005 20:15:00      0.108     1.452     0.145     0.078
   07/10/2005 20:20:00      0.099     1.407     0.140     0.074
   07/10/2005 20:25:00      0.093     1.382     0.136     0.071
   07/10/2005 20:30:00      0.091     1.374     0.134     0.069
   07/10/2005 20:35:00      0.089     1.366     0.133     0.069
   07/10/2005 20:40:00      0.086     1.346     0.131     0.067
   07/10/2005 20:45:00      0.081     1.315     0.128     0.065
   07/10/2005 20:50:00      0.076     1.287     0.124     0.062
   07/10/2005 20:55:00      0.069     1.251     0.119     0.058
   07/10/2005 21:00:00      0.065     1.230     0.115     0.056
   07/10/2005 21:05:00      0.062     1.214     0.112     0.053
   07/10/2005 21:10:00      0.059     1.197     0.109     0.052
   07/10/2005 21:15:00      0.056     1.180     0.107     0.050
   07/10/2005 21:20:00      0.053     1.151     0.104     0.048
   07/10/2005 21:25:00      0.049     1.121     0.100     0.046
   07/10/2005 21:30:00      0.045     1.096     0.097     0.043
   07/10/2005 21:35:00      0.042     1.075     0.094     0.041
   07/10/2005 21:40:00      0.039     1.054     0.091     0.039
   07/10/2005 21:45:00      0.037     1.036     0.088     0.038
   07/10/2005 21:50:00      0.035     1.015     0.086     0.036
   07/10/2005 21:55:00      0.033     0.994     0.083     0.035
   07/10/2005 22:00:00      0.031     0.975     0.081     0.033
   07/10/2005 22:05:00      0.029     0.957     0.079     0.032
   07/10/2005 22:10:00      0.028     0.941     0.077     0.031
  
  
  <<< Link C22 >>>
  ----------------------------------------------------------------
                             Flow  Velocity     Depth  Capacity/
  Date        Time            CMS     m/sec    meters   Setting 
  ----------------------------------------------------------------
   07/10/2005 17:15:00      0.000     0.000     0.036     0.007
   07/10/2005 17:20:00      0.000     0.000     0.029     0.005
   07/10/2005 17:25:00      0.000     0.007     0.024     0.004
   07/10/2005 17:30:00      0.000     0.067     0.023     0.003
   07/10/2005 17:35:00      0.002     0.310     0.026     0.004
   07/10/2005 17:40:00      0.006     0.633     0.034     0.006
   07/10/2005 17:45:00      0.010     0.754     0.043     0.009
   07/10/2005 17:50:00      0.013     0.753     0.051     0.012
   07/10/2005 17:55:00      0.016     0.723     0.058     0.014
   07/10/2005 18:00:00      0.019     0.739     0.065     0.017
   07/10/2005 18:05:00      0.023     0.766     0.071     0.019
   07/10/2005 18:10:00      0.030     0.872     0.080     0.023
   07/10/2005 18:15:00      0.059     1.174     0.101     0.032
   07/10/2005 18:20:00      0.085     1.245     0.126     0.045
   07/10/2005 18:25:00      0.126     1.378     0.153     0.059
   07/10/2005 18:30:00      0.178     1.498     0.183     0.077
   07/10/2005 18:35:00      0.187     1.427     0.196     0.085
   07/10/2005 18:40:00      0.207     1.503     0.203     0.089
   07/10/2005 18:45:00      0.202     1.471     0.202     0.089
   07/10/2005 18:50:00      0.201     1.498     0.199     0.087
   07/10/2005 18:55:00      0.241     1.669     0.209     0.094
   07/10/2005 19:00:00      0.301     1.797     0.232     0.109
   07/10/2005 19:05:00      0.439     2.059     0.275     0.139
   07/10/2005 19:10:00      0.473     1.956     0.300     0.157
   07/10/2005 19:15:00      0.436     1.881     0.291     0.151
   07/10/2005 19:20:00      0.373     1.800     0.269     0.134
   07/10/2005 19:25:00      0.314     1.734     0.245     0.117
   07/10/2005 19:30:00      0.264     1.669     0.223     0.103
   07/10/2005 19:35:00      0.224     1.610     0.204     0.091
   07/10/2005 19:40:00      0.195     1.568     0.189     0.081
   07/10/2005 19:45:00      0.171     1.513     0.177     0.073
   07/10/2005 19:50:00      0.149     1.461     0.165     0.066
   07/10/2005 19:55:00      0.132     1.416     0.155     0.060
   07/10/2005 20:00:00      0.119     1.388     0.147     0.056
   07/10/2005 20:05:00      0.122     1.445     0.145     0.055
   07/10/2005 20:10:00      0.128     1.472     0.148     0.057
   07/10/2005 20:15:00      0.124     1.414     0.149     0.057
   07/10/2005 20:20:00      0.115     1.350     0.146     0.055
   07/10/2005 20:25:00      0.108     1.325     0.142     0.053
   07/10/2005 20:30:00      0.105     1.325     0.139     0.051
   07/10/2005 20:35:00      0.103     1.323     0.137     0.051
   07/10/2005 20:40:00      0.100     1.301     0.136     0.050
   07/10/2005 20:45:00      0.094     1.265     0.133     0.048
   07/10/2005 20:50:00      0.088     1.235     0.129     0.046
   07/10/2005 20:55:00      0.081     1.199     0.125     0.044
   07/10/2005 21:00:00      0.076     1.181     0.121     0.042
   07/10/2005 21:05:00      0.072     1.172     0.117     0.040
   07/10/2005 21:10:00      0.069     1.161     0.115     0.039
   07/10/2005 21:15:00      0.066     1.151     0.112     0.037
   07/10/2005 21:20:00      0.062     1.122     0.109     0.036
   07/10/2005 21:25:00      0.058     1.092     0.106     0.034
   07/10/2005 21:30:00      0.054     1.069     0.102     0.033
   07/10/2005 21:35:00      0.051     1.049     0.099     0.031
   07/10/2005 21:40:00      0.047     1.033     0.096     0.030
   07/10/2005 21:45:00      0.045     1.018     0.093     0.029
   07/10/2005 21:50:00      0.042     1.005     0.090     0.027
   07/10/2005 21:55:00      0.040     0.992     0.088     0.026
   07/10/2005 22:00:00      0.038     0.983     0.085     0.025
   07/10/2005 22:05:00      0.036     0.972     0.083     0.024
   07/10/2005 22:10:00      0.034     0.958     0.081     0.023
  

  Analysis begun on:  Wed Mar 27 11:28:03 2019
  Analysis ended on:  Wed Mar 27 11:28:04 2019
  Total elapsed time: 00:00:01