
  EPA STORM WATER MANAGEMENT MODEL - VERSION 5.1 (Build 5.1.012)
  --------------------------------------------------------------

  
  *************
  Element Count
  *************
  Number of rain gages ...... 1
  Number of subcatchments ... 15
  Number of nodes ........... 25
  Number of links ........... 24
  Number of pollutants ...... 0
  Number of land uses ....... 0
  
  
  ****************
  Raingage Summary
  ****************
                                                      Data       Recording
  Name                 Data Source                    Type       Interval 
  ------------------------------------------------------------------------
  1                    20050710                       VOLUME       5 min.
  
  
  ********************
  Subcatchment Summary
  ********************
  Name                       Area     Width   %Imperv    %Slope Rain Gage            Outlet              
  -----------------------------------------------------------------------------------------------------------
  S1                         2.21    400.00     80.00    0.0500 1                    J1                  
  S2                         7.25    400.00     50.00    0.0500 1                    J0                  
  S3                         1.53    400.00     30.00    0.0500 1                    J4                  
  S4                         6.18    400.00     20.00    0.0500 1                    J8                  
  S5                         9.28    400.00     20.00    0.0500 1                    J7                  
  S6                         6.98    400.00     60.00    0.0500 1                    J5                  
  S7                         3.28    400.00     40.00    0.0500 1                    J25                 
  S8                        10.68    400.00     70.00    0.0500 1                    J11                 
  S9                        16.43    400.00     45.50    0.0500 1                    J14                 
  S10                        2.73    400.00     40.00    0.0500 1                    J9                  
  S11                        9.27    700.00     40.00    0.0500 1                    J10                 
  S12                       10.58    400.00     60.00    0.0500 1                    J17                 
  S13                       10.08    500.00     60.00    0.0500 1                    J24                 
  S14                       11.53    400.00     40.00    0.0500 1                    J15                 
  S15                        8.92    400.00     50.00    0.0500 1                    J23                 
  
  
  ************
  Node Summary
  ************
                                           Invert      Max.    Ponded    External
  Name                 Type                 Elev.     Depth      Area    Inflow  
  -------------------------------------------------------------------------------
  J0                   JUNCTION             30.99      4.00       0.0
  J1                   JUNCTION             28.99      4.00       0.0
  J2                   JUNCTION             25.99      4.00       0.0
  J3                   JUNCTION             30.99      4.00       0.0
  J4                   JUNCTION             33.99      4.00       0.0
  J5                   JUNCTION             28.99      4.00       0.0
  J6                   JUNCTION             23.79      4.00       0.0
  J7                   JUNCTION             28.39      4.00       0.0
  J8                   JUNCTION             29.99      4.00       0.0
  J9                   JUNCTION             28.69      4.00       0.0
  J10                  JUNCTION             25.99      4.00       0.0
  J11                  JUNCTION             25.69      4.00       0.0
  J12                  JUNCTION             22.79      4.00       0.0
  J13                  JUNCTION             25.29      4.00       0.0
  J14                  JUNCTION             24.59      4.00       0.0
  J15                  JUNCTION             24.19      4.00       0.0
  J16                  JUNCTION             23.39      4.00       0.0
  J17                  JUNCTION             22.09      4.00       0.0
  J18                  JUNCTION             16.00      4.00       0.0
  J20                  JUNCTION             17.70      4.00       0.0
  J21                  JUNCTION             19.00      4.00       0.0
  J23                  JUNCTION             22.29      4.00       0.0
  J24                  JUNCTION             20.89      4.00       0.0
  J25                  JUNCTION             30.19      4.00       0.0
  J19                  OUTFALL              15.50      3.60       0.0
  
  
  ************
  Link Summary
  ************
  Name             From Node        To Node          Type            Length    %Slope Roughness
  ---------------------------------------------------------------------------------------------
  C0               J0               J2               CONDUIT          214.0    2.3371    0.0110
  C1               J1               J2               CONDUIT          152.0    1.9741    0.0110
  C2               J3               J2               CONDUIT          306.0    1.6342    0.0110
  C3               J4               J3               CONDUIT          128.0    2.3444    0.0110
  C4               J2               J6               CONDUIT          293.0    0.7509    0.0110
  C5               J5               J6               CONDUIT          246.0    2.1143    0.0110
  C6               J25              J11              CONDUIT          289.0    1.5573    0.0110
  C7               J6               J12              CONDUIT          335.0    0.2985    0.0110
  C8               J7               J6               CONDUIT          187.0    2.4606    0.0110
  C9               J8               J9               CONDUIT          119.0    1.0925    0.0110
  C10              J9               J16              CONDUIT          325.0    1.6310    0.0110
  C11              J10              J11              CONDUIT          227.0    0.1322    0.0110
  C12              J12              J18              CONDUIT          401.0    1.6935    0.0110
  C13              J17              J18              CONDUIT          267.0    2.2815    0.0110
  C14              J11              J13              CONDUIT          113.0    0.3540    0.0110
  C16              J13              J17              CONDUIT          409.0    0.7824    0.0110
  C17              J24              J20              CONDUIT          329.0    0.9697    0.0110
  C18              J20              J18              CONDUIT          215.0    0.7907    0.0110
  C19              J16              J21              CONDUIT          437.0    1.0046    0.0110
  C20              J21              J20              CONDUIT          295.0    0.4407    0.0110
  C21              J23              J21              CONDUIT          204.0    1.6130    0.0110
  C23              J18              J19              CONDUIT          161.0    0.3106    0.0110
  C24              J15              J16              CONDUIT          197.0    0.4061    0.0110
  C22              J14              J12              CONDUIT          280.0    0.6429    0.0110
  
  
  *********************
  Cross Section Summary
  *********************
                                        Full     Full     Hyd.     Max.   No. of     Full
  Conduit          Shape               Depth     Area     Rad.    Width  Barrels     Flow
  ---------------------------------------------------------------------------------------
  C0               CIRCULAR             0.70     0.38     0.17     0.70        1     1.67
  C1               CIRCULAR             0.60     0.28     0.15     0.60        1     1.02
  C2               CIRCULAR             0.80     0.50     0.20     0.80        1     2.00
  C3               CIRCULAR             0.60     0.28     0.15     0.60        1     1.11
  C4               CIRCULAR             1.20     1.13     0.30     1.20        1     3.99
  C5               CIRCULAR             0.70     0.38     0.17     0.70        1     1.59
  C6               CIRCULAR             0.80     0.50     0.20     0.80        1     1.95
  C7               CIRCULAR             2.40     4.52     0.60     2.40        1    15.99
  C8               CIRCULAR             0.70     0.38     0.17     0.70        1     1.72
  C9               CIRCULAR             0.70     0.38     0.17     0.70        1     1.14
  C10              CIRCULAR             1.00     0.79     0.25     1.00        1     3.62
  C11              CIRCULAR             1.50     1.77     0.38     1.50        1     3.04
  C12              CIRCULAR             3.00     7.07     0.75     3.00        1    69.04
  C13              CIRCULAR             1.50     1.77     0.38     1.50        1    12.62
  C14              CIRCULAR             1.50     1.77     0.38     1.50        1     4.97
  C16              CIRCULAR             1.35     1.43     0.34     1.35        1     5.58
  C17              CIRCULAR             0.80     0.50     0.20     0.80        1     1.54
  C18              CIRCULAR             3.00     7.07     0.75     3.00        1    47.18
  C19              CIRCULAR             3.00     7.07     0.75     3.00        1    53.18
  C20              CIRCULAR             3.00     7.07     0.75     3.00        1    35.22
  C21              CIRCULAR             1.00     0.79     0.25     1.00        1     3.60
  C23              CIRCULAR             3.60    10.18     0.90     3.60        1    48.08
  C24              CIRCULAR             1.10     0.95     0.28     1.10        1     2.33
  C22              CIRCULAR             1.40     1.54     0.35     1.40        1     5.57
  
  
  
  *********************************************************
  NOTE: The summary statistics displayed in this report are
  based on results found at every computational time step,  
  not just on results from each reporting time step.
  *********************************************************
  
  ****************
  Analysis Options
  ****************
  Flow Units ............... CMS
  Process Models:
    Rainfall/Runoff ........ YES
    RDII ................... NO
    Snowmelt ............... NO
    Groundwater ............ NO
    Flow Routing ........... YES
    Ponding Allowed ........ NO
    Water Quality .......... NO
  Infiltration Method ...... HORTON
  Flow Routing Method ...... DYNWAVE
  Starting Date ............ 07/10/2005 17:10:00
  Ending Date .............. 07/10/2005 22:15:00
  Antecedent Dry Days ...... 0.0
  Report Time Step ......... 00:05:00
  Wet Time Step ............ 00:05:00
  Dry Time Step ............ 01:00:00
  Routing Time Step ........ 30.00 sec
  Variable Time Step ....... YES
  Maximum Trials ........... 8
  Number of Threads ........ 1
  Head Tolerance ........... 0.005000 m
  
  
  **************************        Volume         Depth
  Runoff Quantity Continuity     hectare-m            mm
  **************************     ---------       -------
  Total Precipitation ......         3.520        30.100
  Evaporation Loss .........         0.000         0.000
  Infiltration Loss ........         1.844        15.772
  Surface Runoff ...........         1.542        13.190
  Final Storage ............         0.138         1.179
  Continuity Error (%) .....        -0.135
  
  
  **************************        Volume        Volume
  Flow Routing Continuity        hectare-m      10^6 ltr
  **************************     ---------     ---------
  Dry Weather Inflow .......         0.000         0.000
  Wet Weather Inflow .......         1.540        15.403
  Groundwater Inflow .......         0.000         0.000
  RDII Inflow ..............         0.000         0.000
  External Inflow ..........         0.000         0.000
  External Outflow .........         1.534        15.344
  Flooding Loss ............         0.000         0.000
  Evaporation Loss .........         0.000         0.000
  Exfiltration Loss ........         0.000         0.000
  Initial Stored Volume ....         0.021         0.207
  Final Stored Volume ......         0.018         0.175
  Continuity Error (%) .....         0.582
  
  
  ***************************
  Time-Step Critical Elements
  ***************************
  Link C14 (28.39%)
  
  
  ********************************
  Highest Flow Instability Indexes
  ********************************
  Link C7 (2)
  Link C9 (2)
  Link C10 (2)
  Link C17 (2)
  Link C4 (2)
  
  
  *************************
  Routing Time Step Summary
  *************************
  Minimum Time Step           :     1.81 sec
  Average Time Step           :    28.55 sec
  Maximum Time Step           :    30.00 sec
  Percent in Steady State     :     0.00
  Average Iterations per Step :     2.00
  Percent Not Converging      :     0.00
  
  
  ***************************
  Subcatchment Runoff Summary
  ***************************
  
  --------------------------------------------------------------------------------------------------------
                            Total      Total      Total      Total      Total       Total     Peak  Runoff
                           Precip      Runon       Evap      Infil     Runoff      Runoff   Runoff   Coeff
  Subcatchment                 mm         mm         mm         mm         mm    10^6 ltr      CMS
  --------------------------------------------------------------------------------------------------------
  S1                        30.10       0.00       0.00       6.02      22.90        0.51     0.18   0.761
  S2                        30.10       0.00       0.00      15.05      14.04        1.02     0.30   0.466
  S3                        30.10       0.00       0.00      21.07       8.73        0.13     0.06   0.290
  S4                        30.10       0.00       0.00      24.08       5.76        0.36     0.14   0.191
  S5                        30.10       0.00       0.00      24.08       5.72        0.53     0.18   0.190
  S6                        30.10       0.00       0.00      12.04      16.75        1.17     0.33   0.556
  S7                        30.10       0.00       0.00      18.06      11.51        0.38     0.14   0.382
  S8                        30.10       0.00       0.00       9.03      18.86        2.01     0.47   0.627
  S9                        30.10       0.00       0.00      16.40      12.26        2.01     0.47   0.407
  S10                       30.10       0.00       0.00      18.06      11.54        0.32     0.12   0.383
  S11                       30.10       0.00       0.00      18.06      11.41        1.06     0.35   0.379
  S12                       30.10       0.00       0.00      12.04      16.37        1.73     0.42   0.544
  S13                       30.10       0.00       0.00      12.04      16.63        1.68     0.45   0.553
  S14                       30.10       0.00       0.00      18.06      11.12        1.28     0.35   0.369
  S15                       30.10       0.00       0.00      15.05      13.92        1.24     0.34   0.462
  
  
  ******************
  Node Depth Summary
  ******************
  
  ---------------------------------------------------------------------------------
                                 Average  Maximum  Maximum  Time of Max    Reported
                                   Depth    Depth      HGL   Occurrence   Max Depth
  Node                 Type       Meters   Meters   Meters  days hr:min      Meters
  ---------------------------------------------------------------------------------
  J0                   JUNCTION     0.08     0.20    31.19     0  01:55        0.19
  J1                   JUNCTION     0.06     0.17    29.16     0  01:55        0.17
  J2                   JUNCTION     0.11     0.29    26.28     0  01:58        0.28
  J3                   JUNCTION     0.03     0.09    31.08     0  01:56        0.09
  J4                   JUNCTION     0.03     0.10    34.09     0  01:55        0.09
  J5                   JUNCTION     0.09     0.21    29.20     0  01:55        0.21
  J6                   JUNCTION     0.17     0.41    24.20     0  01:59        0.41
  J7                   JUNCTION     0.05     0.15    28.54     0  01:55        0.15
  J8                   JUNCTION     0.05     0.16    30.15     0  01:55        0.16
  J9                   JUNCTION     0.06     0.18    28.87     0  01:56        0.17
  J10                  JUNCTION     0.13     0.34    26.33     0  01:56        0.33
  J11                  JUNCTION     0.18     0.44    26.13     0  01:58        0.43
  J12                  JUNCTION     0.13     0.30    23.09     0  02:01        0.30
  J13                  JUNCTION     0.15     0.38    25.67     0  01:59        0.38
  J14                  JUNCTION     0.12     0.28    24.87     0  01:56        0.27
  J15                  JUNCTION     0.12     0.30    24.49     0  01:55        0.29
  J16                  JUNCTION     0.09     0.22    23.61     0  01:58        0.22
  J17                  JUNCTION     0.14     0.33    22.42     0  02:00        0.33
  J18                  JUNCTION     0.30     0.71    16.71     0  02:02        0.69
  J20                  JUNCTION     0.14     0.34    18.04     0  02:01        0.34
  J21                  JUNCTION     0.13     0.33    19.33     0  02:00        0.32
  J23                  JUNCTION     0.08     0.21    22.50     0  01:55        0.20
  J24                  JUNCTION     0.12     0.29    21.18     0  01:56        0.29
  J25                  JUNCTION     0.05     0.14    30.33     0  01:55        0.14
  J19                  OUTFALL      0.29     0.70    16.20     0  02:03        0.70
  
  
  *******************
  Node Inflow Summary
  *******************
  
  -------------------------------------------------------------------------------------------------
                                  Maximum  Maximum                  Lateral       Total        Flow
                                  Lateral    Total  Time of Max      Inflow      Inflow     Balance
                                   Inflow   Inflow   Occurrence      Volume      Volume       Error
  Node                 Type           CMS      CMS  days hr:min    10^6 ltr    10^6 ltr     Percent
  -------------------------------------------------------------------------------------------------
  J0                   JUNCTION     0.295    0.295     0  01:55        1.02        1.02      -0.715
  J1                   JUNCTION     0.177    0.177     0  01:55       0.506       0.505      -0.011
  J2                   JUNCTION     0.000    0.524     0  01:55           0        1.66      -0.625
  J3                   JUNCTION     0.000    0.060     0  01:55           0       0.134      -0.088
  J4                   JUNCTION     0.061    0.061     0  01:55       0.134       0.133      -0.219
  J5                   JUNCTION     0.325    0.325     0  01:55        1.17        1.17       0.075
  J6                   JUNCTION     0.000    0.983     0  01:57           0        3.37      -0.314
  J7                   JUNCTION     0.184    0.184     0  01:55        0.53        0.53      -0.019
  J8                   JUNCTION     0.136    0.136     0  01:55       0.356       0.356      -0.006
  J9                   JUNCTION     0.124    0.256     0  01:55       0.315       0.671      -0.068
  J10                  JUNCTION     0.354    0.354     0  01:55        1.06        1.06       0.005
  J11                  JUNCTION     0.465    0.941     0  01:56        2.01        3.45       0.357
  J12                  JUNCTION     0.000    1.429     0  02:00           0        5.39      -0.389
  J13                  JUNCTION     0.000    0.926     0  01:58           0        3.43       0.180
  J14                  JUNCTION     0.465    0.465     0  01:55        2.01        2.01       0.185
  J15                  JUNCTION     0.347    0.347     0  01:55        1.28        1.28       0.107
  J16                  JUNCTION     0.000    0.597     0  01:56           0        1.95       0.206
  J17                  JUNCTION     0.423    1.340     0  01:59        1.73        5.16       0.172
  J18                  JUNCTION     0.000    4.031     0  02:01           0        15.4       0.293
  J20                  JUNCTION     0.000    1.298     0  02:00           0        4.84       0.243
  J21                  JUNCTION     0.000    0.899     0  01:58           0        3.18       0.433
  J23                  JUNCTION     0.339    0.339     0  01:55        1.24        1.24       0.033
  J24                  JUNCTION     0.447    0.447     0  01:55        1.67        1.67       0.084
  J25                  JUNCTION     0.142    0.142     0  01:55       0.377       0.377      -0.155
  J19                  OUTFALL      0.000    4.023     0  02:03           0        15.3       0.000
  
  
  **********************
  Node Surcharge Summary
  **********************
  
  No nodes were surcharged.
  
  
  *********************
  Node Flooding Summary
  *********************
  
  No nodes were flooded.
  
  
  ***********************
  Outfall Loading Summary
  ***********************
  
  -----------------------------------------------------------
                         Flow       Avg       Max       Total
                         Freq      Flow      Flow      Volume
  Outfall Node           Pcnt       CMS       CMS    10^6 ltr
  -----------------------------------------------------------
  J19                  100.00     0.920     4.023      15.344
  -----------------------------------------------------------
  System               100.00     0.920     4.023      15.344
  
  
  ********************
  Link Flow Summary
  ********************
  
  -----------------------------------------------------------------------------
                                 Maximum  Time of Max   Maximum    Max/    Max/
                                  |Flow|   Occurrence   |Veloc|    Full    Full
  Link                 Type          CMS  days hr:min     m/sec    Flow   Depth
  -----------------------------------------------------------------------------
  C0                   CONDUIT     0.295     0  01:55      4.43    0.18    0.34
  C1                   CONDUIT     0.176     0  01:55      1.86    0.17    0.37
  C2                   CONDUIT     0.056     0  01:57      0.62    0.03    0.24
  C3                   CONDUIT     0.060     0  01:55      2.17    0.05    0.15
  C4                   CONDUIT     0.498     0  01:58      1.83    0.12    0.29
  C5                   CONDUIT     0.324     0  01:55      2.07    0.20    0.44
  C6                   CONDUIT     0.138     0  01:56      0.85    0.07    0.36
  C7                   CONDUIT     0.967     0  02:00      2.33    0.06    0.15
  C8                   CONDUIT     0.182     0  01:55      1.35    0.11    0.40
  C9                   CONDUIT     0.134     0  01:55      1.87    0.12    0.24
  C10                  CONDUIT     0.249     0  01:56      2.31    0.07    0.20
  C11                  CONDUIT     0.340     0  01:56      0.95    0.11    0.26
  C12                  CONDUIT     1.416     0  02:01      2.59    0.02    0.17
  C13                  CONDUIT     1.336     0  02:00      2.54    0.11    0.34
  C14                  CONDUIT     0.926     0  01:58      2.39    0.19    0.27
  C16                  CONDUIT     0.925     0  01:59      3.08    0.17    0.26
  C17                  CONDUIT     0.442     0  01:56      2.56    0.29    0.39
  C18                  CONDUIT     1.288     0  02:01      1.56    0.03    0.17
  C19                  CONDUIT     0.571     0  01:58      1.83    0.01    0.09
  C20                  CONDUIT     0.873     0  02:00      2.03    0.02    0.11
  C21                  CONDUIT     0.338     0  01:55      2.19    0.09    0.26
  C23                  CONDUIT     4.023     0  02:03      3.66    0.08    0.20
  C24                  CONDUIT     0.347     0  01:56      2.09    0.15    0.23
  C22                  CONDUIT     0.469     0  01:57      2.20    0.08    0.20
  
  
  ***************************
  Flow Classification Summary
  ***************************
  
  -------------------------------------------------------------------------------------
                      Adjusted    ---------- Fraction of Time in Flow Class ---------- 
                       /Actual         Up    Down  Sub   Sup   Up    Down  Norm  Inlet 
  Conduit               Length    Dry  Dry   Dry   Crit  Crit  Crit  Crit  Ltd   Ctrl  
  -------------------------------------------------------------------------------------
  C0                      1.00   0.00  0.00  0.00  0.06  0.94  0.00  0.00  1.00  0.00
  C1                      1.00   0.00  0.02  0.00  0.44  0.53  0.00  0.00  0.98  0.00
  C2                      1.00   0.00  0.02  0.00  0.98  0.00  0.00  0.00  0.98  0.00
  C3                      1.00   0.02  0.00  0.00  0.01  0.97  0.00  0.00  0.76  0.00
  C4                      1.00   0.00  0.00  0.00  0.56  0.44  0.00  0.00  1.00  0.00
  C5                      1.00   0.00  0.02  0.00  0.06  0.92  0.00  0.00  0.98  0.00
  C6                      1.00   0.02  0.00  0.00  0.94  0.04  0.00  0.00  0.98  0.00
  C7                      1.00   0.00  0.00  0.00  0.00  1.00  0.00  0.00  0.00  0.00
  C8                      1.00   0.00  0.02  0.00  0.92  0.06  0.00  0.00  0.98  0.00
  C9                      1.00   0.02  0.00  0.00  0.03  0.95  0.00  0.00  0.97  0.00
  C10                     1.00   0.02  0.00  0.00  0.25  0.73  0.00  0.00  0.88  0.00
  C11                     1.00   0.02  0.00  0.00  0.98  0.00  0.00  0.00  0.89  0.00
  C12                     1.00   0.00  0.00  0.00  0.91  0.09  0.00  0.00  1.00  0.00
  C13                     1.00   0.00  0.02  0.00  0.08  0.89  0.00  0.00  0.98  0.00
  C14                     1.00   0.02  0.00  0.00  0.05  0.93  0.00  0.00  0.13  0.00
  C16                     1.00   0.02  0.00  0.00  0.07  0.91  0.00  0.00  0.06  0.00
  C17                     1.00   0.02  0.00  0.00  0.02  0.96  0.00  0.00  0.84  0.00
  C18                     1.00   0.00  0.02  0.00  0.98  0.00  0.00  0.00  0.98  0.00
  C19                     1.00   0.02  0.00  0.00  0.22  0.76  0.00  0.00  0.98  0.00
  C20                     1.00   0.02  0.00  0.00  0.08  0.90  0.00  0.00  0.73  0.00
  C21                     1.00   0.02  0.00  0.00  0.02  0.96  0.00  0.00  0.91  0.00
  C23                     1.00   0.00  0.00  0.00  0.00  1.00  0.00  0.00  0.58  0.00
  C24                     1.00   0.02  0.00  0.00  0.04  0.94  0.00  0.00  0.00  0.00
  C22                     1.00   0.00  0.02  0.00  0.06  0.91  0.00  0.00  0.41  0.00
  
  
  *************************
  Conduit Surcharge Summary
  *************************
  
  No conduits were surcharged.
  
  
  ********************
  Subcatchment Results
  ********************
  
  <<< Subcatchment S1 >>>
  ---------------------------------------------------
  Date        Time        Precip.    Losses    Runoff
                            mm/hr     mm/hr       CMS
  ---------------------------------------------------
   07/10/2005 17:15:00      1.200     0.240    0.0000
   07/10/2005 17:20:00      3.600     0.720    0.0000
   07/10/2005 17:25:00      7.200     1.440    0.0003
   07/10/2005 17:30:00     10.800     2.160    0.0013
   07/10/2005 17:35:00      6.000     1.200    0.0044
   07/10/2005 17:40:00      3.600     0.720    0.0077
   07/10/2005 17:45:00      2.400     0.480    0.0092
   07/10/2005 17:50:00      3.600     0.720    0.0095
   07/10/2005 17:55:00      3.600     0.720    0.0109
   07/10/2005 18:00:00      3.600     0.720    0.0122
   07/10/2005 18:05:00      8.400     1.680    0.0133
   07/10/2005 18:10:00     21.600     4.320    0.0195
   07/10/2005 18:15:00     12.000     2.400    0.0436
   07/10/2005 18:20:00     24.000     4.800    0.0485
   07/10/2005 18:25:00     24.000     4.800    0.0726
   07/10/2005 18:30:00      7.200     1.440    0.0899
   07/10/2005 18:35:00     18.000     3.600    0.0693
   07/10/2005 18:40:00      4.800     0.960    0.0764
   07/10/2005 18:45:00     10.800     2.160    0.0575
   07/10/2005 18:50:00     25.200     5.040    0.0560
   07/10/2005 18:55:00     28.800     5.760    0.0805
   07/10/2005 19:00:00     54.000    10.800    0.1047
   07/10/2005 19:05:00     21.600     4.320    0.1772
   07/10/2005 19:10:00     10.800     2.160    0.1440
   07/10/2005 19:15:00      2.400     0.480    0.1048
   07/10/2005 19:20:00      1.200     0.240    0.0689
   07/10/2005 19:25:00      0.000     0.000    0.0474
   07/10/2005 19:30:00      0.000     0.000    0.0331
   07/10/2005 19:35:00      1.200     0.240    0.0241
   07/10/2005 19:40:00      0.000     0.000    0.0196
   07/10/2005 19:45:00      0.000     0.000    0.0152
   07/10/2005 19:50:00      0.000     0.000    0.0120
   07/10/2005 19:55:00      1.200     0.240    0.0097
   07/10/2005 20:00:00      8.400     1.680    0.0090
   07/10/2005 20:05:00      7.200     1.440    0.0155
   07/10/2005 20:10:00      2.400     0.480    0.0201
   07/10/2005 20:15:00      1.200     0.240    0.0181
   07/10/2005 20:20:00      2.400     0.480    0.0154
   07/10/2005 20:25:00      3.600     0.720    0.0146
   07/10/2005 20:30:00      3.600     0.720    0.0153
   07/10/2005 20:35:00      2.400     0.480    0.0158
   07/10/2005 20:40:00      1.200     0.240    0.0149
   07/10/2005 20:45:00      1.200     0.240    0.0130
   07/10/2005 20:50:00      0.000     0.000    0.0116
   07/10/2005 20:55:00      1.200     0.240    0.0094
   07/10/2005 21:00:00      1.200     0.240    0.0087
   07/10/2005 21:05:00      1.200     0.240    0.0082
   07/10/2005 21:10:00      1.200     0.240    0.0078
   07/10/2005 21:15:00      0.000     0.000    0.0075
   07/10/2005 21:20:00      0.000     0.000    0.0063
   07/10/2005 21:25:00      0.000     0.000    0.0053
   07/10/2005 21:30:00      0.000     0.000    0.0045
   07/10/2005 21:35:00      0.000     0.000    0.0039
   07/10/2005 21:40:00      0.000     0.000    0.0034
   07/10/2005 21:45:00      0.000     0.000    0.0030
   07/10/2005 21:50:00      0.000     0.000    0.0026
   07/10/2005 21:55:00      0.000     0.000    0.0023
   07/10/2005 22:00:00      0.000     0.000    0.0021
   07/10/2005 22:05:00      0.000     0.000    0.0019
   07/10/2005 22:10:00      0.000     0.000    0.0017
  
  
  <<< Subcatchment S2 >>>
  ---------------------------------------------------
  Date        Time        Precip.    Losses    Runoff
                            mm/hr     mm/hr       CMS
  ---------------------------------------------------
   07/10/2005 17:15:00      1.200     0.600    0.0000
   07/10/2005 17:20:00      3.600     1.800    0.0000
   07/10/2005 17:25:00      7.200     3.600    0.0000
   07/10/2005 17:30:00     10.800     5.400    0.0014
   07/10/2005 17:35:00      6.000     3.000    0.0048
   07/10/2005 17:40:00      3.600     1.800    0.0087
   07/10/2005 17:45:00      2.400     1.200    0.0111
   07/10/2005 17:50:00      3.600     1.800    0.0122
   07/10/2005 17:55:00      3.600     1.800    0.0147
   07/10/2005 18:00:00      3.600     1.800    0.0170
   07/10/2005 18:05:00      8.400     4.200    0.0193
   07/10/2005 18:10:00     21.600    10.800    0.0279
   07/10/2005 18:15:00     12.000     6.000    0.0591
   07/10/2005 18:20:00     24.000    12.000    0.0710
   07/10/2005 18:25:00     24.000    12.000    0.1079
   07/10/2005 18:30:00      7.200     3.600    0.1403
   07/10/2005 18:35:00     18.000     9.000    0.1236
   07/10/2005 18:40:00      4.800     2.400    0.1378
   07/10/2005 18:45:00     10.800     5.400    0.1160
   07/10/2005 18:50:00     25.200    12.600    0.1143
   07/10/2005 18:55:00     28.800    14.400    0.1489
   07/10/2005 19:00:00     54.000    27.000    0.1869
   07/10/2005 19:05:00     21.600    10.800    0.2953
   07/10/2005 19:10:00     10.800     5.400    0.2705
   07/10/2005 19:15:00      2.400     1.200    0.2213
   07/10/2005 19:20:00      1.200     0.600    0.1659
   07/10/2005 19:25:00      0.000     0.000    0.1267
   07/10/2005 19:30:00      0.000     0.000    0.0972
   07/10/2005 19:35:00      1.200     0.600    0.0765
   07/10/2005 19:40:00      0.000     0.000    0.0637
   07/10/2005 19:45:00      0.000     0.000    0.0520
   07/10/2005 19:50:00      0.000     0.000    0.0431
   07/10/2005 19:55:00      1.200     0.600    0.0361
   07/10/2005 20:00:00      8.400     4.200    0.0325
   07/10/2005 20:05:00      7.200     3.600    0.0406
   07/10/2005 20:10:00      2.400     1.200    0.0459
   07/10/2005 20:15:00      1.200     0.600    0.0423
   07/10/2005 20:20:00      2.400     1.200    0.0374
   07/10/2005 20:25:00      3.600     1.800    0.0354
   07/10/2005 20:30:00      3.600     1.800    0.0355
   07/10/2005 20:35:00      2.400     1.200    0.0356
   07/10/2005 20:40:00      1.200     0.600    0.0339
   07/10/2005 20:45:00      1.200     0.600    0.0306
   07/10/2005 20:50:00      0.000     0.000    0.0279
   07/10/2005 20:55:00      1.200     0.600    0.0241
   07/10/2005 21:00:00      1.200     0.600    0.0225
   07/10/2005 21:05:00      1.200     0.600    0.0212
   07/10/2005 21:10:00      1.200     0.600    0.0200
   07/10/2005 21:15:00      0.000     0.000    0.0190
   07/10/2005 21:20:00      0.000     0.000    0.0168
   07/10/2005 21:25:00      0.000     0.000    0.0148
   07/10/2005 21:30:00      0.000     0.000    0.0132
   07/10/2005 21:35:00      0.000     0.000    0.0118
   07/10/2005 21:40:00      0.000     0.000    0.0106
   07/10/2005 21:45:00      0.000     0.000    0.0096
   07/10/2005 21:50:00      0.000     0.000    0.0087
   07/10/2005 21:55:00      0.000     0.000    0.0079
   07/10/2005 22:00:00      0.000     0.000    0.0072
   07/10/2005 22:05:00      0.000     0.000    0.0066
   07/10/2005 22:10:00      0.000     0.000    0.0061
  
  
  <<< Subcatchment S3 >>>
  ---------------------------------------------------
  Date        Time        Precip.    Losses    Runoff
                            mm/hr     mm/hr       CMS
  ---------------------------------------------------
   07/10/2005 17:15:00      1.200     0.840    0.0000
   07/10/2005 17:20:00      3.600     2.520    0.0000
   07/10/2005 17:25:00      7.200     5.040    0.0003
   07/10/2005 17:30:00     10.800     7.560    0.0010
   07/10/2005 17:35:00      6.000     4.200    0.0031
   07/10/2005 17:40:00      3.600     2.520    0.0046
   07/10/2005 17:45:00      2.400     1.680    0.0045
   07/10/2005 17:50:00      3.600     2.520    0.0039
   07/10/2005 17:55:00      3.600     2.520    0.0042
   07/10/2005 18:00:00      3.600     2.520    0.0044
   07/10/2005 18:05:00      8.400     5.880    0.0045
   07/10/2005 18:10:00     21.600    15.120    0.0075
   07/10/2005 18:15:00     12.000     8.400    0.0194
   07/10/2005 18:20:00     24.000    16.800    0.0168
   07/10/2005 18:25:00     24.000    16.800    0.0260
   07/10/2005 18:30:00      7.200     5.040    0.0292
   07/10/2005 18:35:00     18.000    12.600    0.0160
   07/10/2005 18:40:00      4.800     3.360    0.0205
   07/10/2005 18:45:00     10.800     7.560    0.0117
   07/10/2005 18:50:00     25.200    17.640    0.0129
   07/10/2005 18:55:00     28.800    20.160    0.0254
   07/10/2005 19:00:00     54.000    37.800    0.0335
   07/10/2005 19:05:00     21.600    15.120    0.0612
   07/10/2005 19:10:00     10.800     7.560    0.0354
   07/10/2005 19:15:00      2.400     1.680    0.0205
   07/10/2005 19:20:00      1.200     0.840    0.0100
   07/10/2005 19:25:00      0.000     0.000    0.0057
   07/10/2005 19:30:00      0.000     0.000    0.0032
   07/10/2005 19:35:00      1.200     0.840    0.0020
   07/10/2005 19:40:00      0.000     0.000    0.0019
   07/10/2005 19:45:00      0.000     0.000    0.0013
   07/10/2005 19:50:00      0.000     0.000    0.0009
   07/10/2005 19:55:00      1.200     0.840    0.0007
   07/10/2005 20:00:00      8.400     5.880    0.0009
   07/10/2005 20:05:00      7.200     5.040    0.0045
   07/10/2005 20:10:00      2.400     1.680    0.0067
   07/10/2005 20:15:00      1.200     0.840    0.0050
   07/10/2005 20:20:00      2.400     1.680    0.0035
   07/10/2005 20:25:00      3.600     2.520    0.0033
   07/10/2005 20:30:00      3.600     2.520    0.0038
   07/10/2005 20:35:00      2.400     1.680    0.0042
   07/10/2005 20:40:00      1.200     0.840    0.0037
   07/10/2005 20:45:00      1.200     0.840    0.0028
   07/10/2005 20:50:00      0.000     0.000    0.0024
   07/10/2005 20:55:00      1.200     0.840    0.0016
   07/10/2005 21:00:00      1.200     0.840    0.0015
   07/10/2005 21:05:00      1.200     0.840    0.0015
   07/10/2005 21:10:00      1.200     0.840    0.0015
   07/10/2005 21:15:00      0.000     0.000    0.0015
   07/10/2005 21:20:00      0.000     0.000    0.0011
   07/10/2005 21:25:00      0.000     0.000    0.0008
   07/10/2005 21:30:00      0.000     0.000    0.0006
   07/10/2005 21:35:00      0.000     0.000    0.0005
   07/10/2005 21:40:00      0.000     0.000    0.0004
   07/10/2005 21:45:00      0.000     0.000    0.0003
   07/10/2005 21:50:00      0.000     0.000    0.0003
   07/10/2005 21:55:00      0.000     0.000    0.0002
   07/10/2005 22:00:00      0.000     0.000    0.0002
   07/10/2005 22:05:00      0.000     0.000    0.0002
   07/10/2005 22:10:00      0.000     0.000    0.0001
  
  
  <<< Subcatchment S4 >>>
  ---------------------------------------------------
  Date        Time        Precip.    Losses    Runoff
                            mm/hr     mm/hr       CMS
  ---------------------------------------------------
   07/10/2005 17:15:00      1.200     0.960    0.0000
   07/10/2005 17:20:00      3.600     2.880    0.0000
   07/10/2005 17:25:00      7.200     5.760    0.0000
   07/10/2005 17:30:00     10.800     8.640    0.0013
   07/10/2005 17:35:00      6.000     4.800    0.0041
   07/10/2005 17:40:00      3.600     2.880    0.0070
   07/10/2005 17:45:00      2.400     1.920    0.0080
   07/10/2005 17:50:00      3.600     2.880    0.0079
   07/10/2005 17:55:00      3.600     2.880    0.0089
   07/10/2005 18:00:00      3.600     2.880    0.0098
   07/10/2005 18:05:00      8.400     6.720    0.0104
   07/10/2005 18:10:00     21.600    17.280    0.0156
   07/10/2005 18:15:00     12.000     9.600    0.0362
   07/10/2005 18:20:00     24.000    19.200    0.0382
   07/10/2005 18:25:00     24.000    19.200    0.0571
   07/10/2005 18:30:00      7.200     5.760    0.0688
   07/10/2005 18:35:00     18.000    14.400    0.0490
   07/10/2005 18:40:00      4.800     3.840    0.0546
   07/10/2005 18:45:00     10.800     8.640    0.0386
   07/10/2005 18:50:00     25.200    20.160    0.0380
   07/10/2005 18:55:00     28.800    23.040    0.0588
   07/10/2005 19:00:00     54.000    43.200    0.0778
   07/10/2005 19:05:00     21.600    17.280    0.1357
   07/10/2005 19:10:00     10.800     8.640    0.1020
   07/10/2005 19:15:00      2.400     1.920    0.0696
   07/10/2005 19:20:00      1.200     0.960    0.0425
   07/10/2005 19:25:00      0.000     0.000    0.0277
   07/10/2005 19:30:00      0.000     0.000    0.0184
   07/10/2005 19:35:00      1.200     0.960    0.0129
   07/10/2005 19:40:00      0.000     0.000    0.0105
   07/10/2005 19:45:00      0.000     0.000    0.0079
   07/10/2005 19:50:00      0.000     0.000    0.0061
   07/10/2005 19:55:00      1.200     0.960    0.0048
   07/10/2005 20:00:00      8.400     6.720    0.0047
   07/10/2005 20:05:00      7.200     5.760    0.0103
   07/10/2005 20:10:00      2.400     1.920    0.0143
   07/10/2005 20:15:00      1.200     0.960    0.0126
   07/10/2005 20:20:00      2.400     1.920    0.0103
   07/10/2005 20:25:00      3.600     2.880    0.0098
   07/10/2005 20:30:00      3.600     2.880    0.0104
   07/10/2005 20:35:00      2.400     1.920    0.0109
   07/10/2005 20:40:00      1.200     0.960    0.0102
   07/10/2005 20:45:00      1.200     0.960    0.0087
   07/10/2005 20:50:00      0.000     0.000    0.0076
   07/10/2005 20:55:00      1.200     0.960    0.0059
   07/10/2005 21:00:00      1.200     0.960    0.0055
   07/10/2005 21:05:00      1.200     0.960    0.0052
   07/10/2005 21:10:00      1.200     0.960    0.0050
   07/10/2005 21:15:00      0.000     0.000    0.0048
   07/10/2005 21:20:00      0.000     0.000    0.0039
   07/10/2005 21:25:00      0.000     0.000    0.0032
   07/10/2005 21:30:00      0.000     0.000    0.0027
   07/10/2005 21:35:00      0.000     0.000    0.0023
   07/10/2005 21:40:00      0.000     0.000    0.0019
   07/10/2005 21:45:00      0.000     0.000    0.0017
   07/10/2005 21:50:00      0.000     0.000    0.0014
   07/10/2005 21:55:00      0.000     0.000    0.0013
   07/10/2005 22:00:00      0.000     0.000    0.0011
   07/10/2005 22:05:00      0.000     0.000    0.0010
   07/10/2005 22:10:00      0.000     0.000    0.0009
  
  
  <<< Subcatchment S5 >>>
  ---------------------------------------------------
  Date        Time        Precip.    Losses    Runoff
                            mm/hr     mm/hr       CMS
  ---------------------------------------------------
   07/10/2005 17:15:00      1.200     0.960    0.0000
   07/10/2005 17:20:00      3.600     2.880    0.0000
   07/10/2005 17:25:00      7.200     5.760    0.0000
   07/10/2005 17:30:00     10.800     8.640    0.0013
   07/10/2005 17:35:00      6.000     4.800    0.0044
   07/10/2005 17:40:00      3.600     2.880    0.0078
   07/10/2005 17:45:00      2.400     1.920    0.0093
   07/10/2005 17:50:00      3.600     2.880    0.0097
   07/10/2005 17:55:00      3.600     2.880    0.0112
   07/10/2005 18:00:00      3.600     2.880    0.0126
   07/10/2005 18:05:00      8.400     6.720    0.0137
   07/10/2005 18:10:00     21.600    17.280    0.0201
   07/10/2005 18:15:00     12.000     9.600    0.0447
   07/10/2005 18:20:00     24.000    19.200    0.0500
   07/10/2005 18:25:00     24.000    19.200    0.0749
   07/10/2005 18:30:00      7.200     5.760    0.0930
   07/10/2005 18:35:00     18.000    14.400    0.0725
   07/10/2005 18:40:00      4.800     3.840    0.0798
   07/10/2005 18:45:00     10.800     8.640    0.0606
   07/10/2005 18:50:00     25.200    20.160    0.0590
   07/10/2005 18:55:00     28.800    23.040    0.0840
   07/10/2005 19:00:00     54.000    43.200    0.1090
   07/10/2005 19:05:00     21.600    17.280    0.1837
   07/10/2005 19:10:00     10.800     8.640    0.1507
   07/10/2005 19:15:00      2.400     1.920    0.1106
   07/10/2005 19:20:00      1.200     0.960    0.0734
   07/10/2005 19:25:00      0.000     0.000    0.0509
   07/10/2005 19:30:00      0.000     0.000    0.0358
   07/10/2005 19:35:00      1.200     0.960    0.0262
   07/10/2005 19:40:00      0.000     0.000    0.0214
   07/10/2005 19:45:00      0.000     0.000    0.0166
   07/10/2005 19:50:00      0.000     0.000    0.0131
   07/10/2005 19:55:00      1.200     0.960    0.0106
   07/10/2005 20:00:00      8.400     6.720    0.0098
   07/10/2005 20:05:00      7.200     5.760    0.0164
   07/10/2005 20:10:00      2.400     1.920    0.0211
   07/10/2005 20:15:00      1.200     0.960    0.0191
   07/10/2005 20:20:00      2.400     1.920    0.0163
   07/10/2005 20:25:00      3.600     2.880    0.0154
   07/10/2005 20:30:00      3.600     2.880    0.0161
   07/10/2005 20:35:00      2.400     1.920    0.0166
   07/10/2005 20:40:00      1.200     0.960    0.0157
   07/10/2005 20:45:00      1.200     0.960    0.0138
   07/10/2005 20:50:00      0.000     0.000    0.0123
   07/10/2005 20:55:00      1.200     0.960    0.0100
   07/10/2005 21:00:00      1.200     0.960    0.0093
   07/10/2005 21:05:00      1.200     0.960    0.0088
   07/10/2005 21:10:00      1.200     0.960    0.0083
   07/10/2005 21:15:00      0.000     0.000    0.0080
   07/10/2005 21:20:00      0.000     0.000    0.0067
   07/10/2005 21:25:00      0.000     0.000    0.0057
   07/10/2005 21:30:00      0.000     0.000    0.0049
   07/10/2005 21:35:00      0.000     0.000    0.0042
   07/10/2005 21:40:00      0.000     0.000    0.0037
   07/10/2005 21:45:00      0.000     0.000    0.0032
   07/10/2005 21:50:00      0.000     0.000    0.0029
   07/10/2005 21:55:00      0.000     0.000    0.0025
   07/10/2005 22:00:00      0.000     0.000    0.0023
   07/10/2005 22:05:00      0.000     0.000    0.0020
   07/10/2005 22:10:00      0.000     0.000    0.0018
  
  
  <<< Subcatchment S6 >>>
  ---------------------------------------------------
  Date        Time        Precip.    Losses    Runoff
                            mm/hr     mm/hr       CMS
  ---------------------------------------------------
   07/10/2005 17:15:00      1.200     0.480    0.0000
   07/10/2005 17:20:00      3.600     1.440    0.0000
   07/10/2005 17:25:00      7.200     2.880    0.0000
   07/10/2005 17:30:00     10.800     4.320    0.0014
   07/10/2005 17:35:00      6.000     2.400    0.0049
   07/10/2005 17:40:00      3.600     1.440    0.0089
   07/10/2005 17:45:00      2.400     0.960    0.0114
   07/10/2005 17:50:00      3.600     1.440    0.0127
   07/10/2005 17:55:00      3.600     1.440    0.0153
   07/10/2005 18:00:00      3.600     1.440    0.0179
   07/10/2005 18:05:00      8.400     3.360    0.0204
   07/10/2005 18:10:00     21.600     8.640    0.0294
   07/10/2005 18:15:00     12.000     4.800    0.0621
   07/10/2005 18:20:00     24.000     9.600    0.0754
   07/10/2005 18:25:00     24.000     9.600    0.1149
   07/10/2005 18:30:00      7.200     2.880    0.1509
   07/10/2005 18:35:00     18.000     7.200    0.1358
   07/10/2005 18:40:00      4.800     1.920    0.1524
   07/10/2005 18:45:00     10.800     4.320    0.1308
   07/10/2005 18:50:00     25.200    10.080    0.1297
   07/10/2005 18:55:00     28.800    11.520    0.1669
   07/10/2005 19:00:00     54.000    21.600    0.2084
   07/10/2005 19:05:00     21.600     8.640    0.3253
   07/10/2005 19:10:00     10.800     4.320    0.3036
   07/10/2005 19:15:00      2.400     0.960    0.2535
   07/10/2005 19:20:00      1.200     0.480    0.1946
   07/10/2005 19:25:00      0.000     0.000    0.1514
   07/10/2005 19:30:00      0.000     0.000    0.1182
   07/10/2005 19:35:00      1.200     0.480    0.0944
   07/10/2005 19:40:00      0.000     0.000    0.0793
   07/10/2005 19:45:00      0.000     0.000    0.0654
   07/10/2005 19:50:00      0.000     0.000    0.0547
   07/10/2005 19:55:00      1.200     0.480    0.0462
   07/10/2005 20:00:00      8.400     3.360    0.0415
   07/10/2005 20:05:00      7.200     2.880    0.0499
   07/10/2005 20:10:00      2.400     0.960    0.0552
   07/10/2005 20:15:00      1.200     0.480    0.0509
   07/10/2005 20:20:00      2.400     0.960    0.0453
   07/10/2005 20:25:00      3.600     1.440    0.0428
   07/10/2005 20:30:00      3.600     1.440    0.0426
   07/10/2005 20:35:00      2.400     0.960    0.0425
   07/10/2005 20:40:00      1.200     0.480    0.0404
   07/10/2005 20:45:00      1.200     0.480    0.0367
   07/10/2005 20:50:00      0.000     0.000    0.0337
   07/10/2005 20:55:00      1.200     0.480    0.0293
   07/10/2005 21:00:00      1.200     0.480    0.0274
   07/10/2005 21:05:00      1.200     0.480    0.0258
   07/10/2005 21:10:00      1.200     0.480    0.0244
   07/10/2005 21:15:00      0.000     0.000    0.0232
   07/10/2005 21:20:00      0.000     0.000    0.0205
   07/10/2005 21:25:00      0.000     0.000    0.0183
   07/10/2005 21:30:00      0.000     0.000    0.0164
   07/10/2005 21:35:00      0.000     0.000    0.0148
   07/10/2005 21:40:00      0.000     0.000    0.0134
   07/10/2005 21:45:00      0.000     0.000    0.0121
   07/10/2005 21:50:00      0.000     0.000    0.0111
   07/10/2005 21:55:00      0.000     0.000    0.0101
   07/10/2005 22:00:00      0.000     0.000    0.0093
   07/10/2005 22:05:00      0.000     0.000    0.0085
   07/10/2005 22:10:00      0.000     0.000    0.0079
  
  
  <<< Subcatchment S7 >>>
  ---------------------------------------------------
  Date        Time        Precip.    Losses    Runoff
                            mm/hr     mm/hr       CMS
  ---------------------------------------------------
   07/10/2005 17:15:00      1.200     0.720    0.0000
   07/10/2005 17:20:00      3.600     2.160    0.0000
   07/10/2005 17:25:00      7.200     4.320    0.0003
   07/10/2005 17:30:00     10.800     6.480    0.0013
   07/10/2005 17:35:00      6.000     3.600    0.0042
   07/10/2005 17:40:00      3.600     2.160    0.0071
   07/10/2005 17:45:00      2.400     1.440    0.0082
   07/10/2005 17:50:00      3.600     2.160    0.0082
   07/10/2005 17:55:00      3.600     2.160    0.0093
   07/10/2005 18:00:00      3.600     2.160    0.0102
   07/10/2005 18:05:00      8.400     5.040    0.0109
   07/10/2005 18:10:00     21.600    12.960    0.0162
   07/10/2005 18:15:00     12.000     7.200    0.0374
   07/10/2005 18:20:00     24.000    14.400    0.0398
   07/10/2005 18:25:00     24.000    14.400    0.0595
   07/10/2005 18:30:00      7.200     4.320    0.0721
   07/10/2005 18:35:00     18.000    10.800    0.0520
   07/10/2005 18:40:00      4.800     2.880    0.0578
   07/10/2005 18:45:00     10.800     6.480    0.0413
   07/10/2005 18:50:00     25.200    15.120    0.0406
   07/10/2005 18:55:00     28.800    17.280    0.0620
   07/10/2005 19:00:00     54.000    32.400    0.0818
   07/10/2005 19:05:00     21.600    12.960    0.1420
   07/10/2005 19:10:00     10.800     6.480    0.1083
   07/10/2005 19:15:00      2.400     1.440    0.0746
   07/10/2005 19:20:00      1.200     0.720    0.0462
   07/10/2005 19:25:00      0.000     0.000    0.0304
   07/10/2005 19:30:00      0.000     0.000    0.0203
   07/10/2005 19:35:00      1.200     0.720    0.0144
   07/10/2005 19:40:00      0.000     0.000    0.0117
   07/10/2005 19:45:00      0.000     0.000    0.0088
   07/10/2005 19:50:00      0.000     0.000    0.0069
   07/10/2005 19:55:00      1.200     0.720    0.0055
   07/10/2005 20:00:00      8.400     5.040    0.0052
   07/10/2005 20:05:00      7.200     4.320    0.0110
   07/10/2005 20:10:00      2.400     1.440    0.0151
   07/10/2005 20:15:00      1.200     0.720    0.0133
   07/10/2005 20:20:00      2.400     1.440    0.0110
   07/10/2005 20:25:00      3.600     2.160    0.0104
   07/10/2005 20:30:00      3.600     2.160    0.0111
   07/10/2005 20:35:00      2.400     1.440    0.0116
   07/10/2005 20:40:00      1.200     0.720    0.0109
   07/10/2005 20:45:00      1.200     0.720    0.0093
   07/10/2005 20:50:00      0.000     0.000    0.0082
   07/10/2005 20:55:00      1.200     0.720    0.0064
   07/10/2005 21:00:00      1.200     0.720    0.0060
   07/10/2005 21:05:00      1.200     0.720    0.0056
   07/10/2005 21:10:00      1.200     0.720    0.0054
   07/10/2005 21:15:00      0.000     0.000    0.0052
   07/10/2005 21:20:00      0.000     0.000    0.0042
   07/10/2005 21:25:00      0.000     0.000    0.0035
   07/10/2005 21:30:00      0.000     0.000    0.0029
   07/10/2005 21:35:00      0.000     0.000    0.0025
   07/10/2005 21:40:00      0.000     0.000    0.0021
   07/10/2005 21:45:00      0.000     0.000    0.0018
   07/10/2005 21:50:00      0.000     0.000    0.0016
   07/10/2005 21:55:00      0.000     0.000    0.0014
   07/10/2005 22:00:00      0.000     0.000    0.0012
   07/10/2005 22:05:00      0.000     0.000    0.0011
   07/10/2005 22:10:00      0.000     0.000    0.0010
  
  
  <<< Subcatchment S8 >>>
  ---------------------------------------------------
  Date        Time        Precip.    Losses    Runoff
                            mm/hr     mm/hr       CMS
  ---------------------------------------------------
   07/10/2005 17:15:00      1.200     0.360    0.0000
   07/10/2005 17:20:00      3.600     1.080    0.0000
   07/10/2005 17:25:00      7.200     2.160    0.0000
   07/10/2005 17:30:00     10.800     3.240    0.0015
   07/10/2005 17:35:00      6.000     1.800    0.0050
   07/10/2005 17:40:00      3.600     1.080    0.0094
   07/10/2005 17:45:00      2.400     0.720    0.0123
   07/10/2005 17:50:00      3.600     1.080    0.0141
   07/10/2005 17:55:00      3.600     1.080    0.0174
   07/10/2005 18:00:00      3.600     1.080    0.0208
   07/10/2005 18:05:00      8.400     2.520    0.0242
   07/10/2005 18:10:00     21.600     6.480    0.0350
   07/10/2005 18:15:00     12.000     3.600    0.0725
   07/10/2005 18:20:00     24.000     7.200    0.0914
   07/10/2005 18:25:00     24.000     7.200    0.1412
   07/10/2005 18:30:00      7.200     2.160    0.1913
   07/10/2005 18:35:00     18.000     5.400    0.1851
   07/10/2005 18:40:00      4.800     1.440    0.2134
   07/10/2005 18:45:00     10.800     3.240    0.1962
   07/10/2005 18:50:00     25.200     7.560    0.2004
   07/10/2005 18:55:00     28.800     8.640    0.2511
   07/10/2005 19:00:00     54.000    16.200    0.3101
   07/10/2005 19:05:00     21.600     6.480    0.4651
   07/10/2005 19:10:00     10.800     3.240    0.4617
   07/10/2005 19:15:00      2.400     0.720    0.4143
   07/10/2005 19:20:00      1.200     0.360    0.3453
   07/10/2005 19:25:00      0.000     0.000    0.2884
   07/10/2005 19:30:00      0.000     0.000    0.2405
   07/10/2005 19:35:00      1.200     0.360    0.2030
   07/10/2005 19:40:00      0.000     0.000    0.1768
   07/10/2005 19:45:00      0.000     0.000    0.1521
   07/10/2005 19:50:00      0.000     0.000    0.1320
   07/10/2005 19:55:00      1.200     0.360    0.1154
   07/10/2005 20:00:00      8.400     2.520    0.1045
   07/10/2005 20:05:00      7.200     2.160    0.1129
   07/10/2005 20:10:00      2.400     0.720    0.1174
   07/10/2005 20:15:00      1.200     0.360    0.1092
   07/10/2005 20:20:00      2.400     0.720    0.0992
   07/10/2005 20:25:00      3.600     1.080    0.0936
   07/10/2005 20:30:00      3.600     1.080    0.0915
   07/10/2005 20:35:00      2.400     0.720    0.0896
   07/10/2005 20:40:00      1.200     0.360    0.0852
   07/10/2005 20:45:00      1.200     0.360    0.0787
   07/10/2005 20:50:00      0.000     0.000    0.0731
   07/10/2005 20:55:00      1.200     0.360    0.0657
   07/10/2005 21:00:00      1.200     0.360    0.0617
   07/10/2005 21:05:00      1.200     0.360    0.0582
   07/10/2005 21:10:00      1.200     0.360    0.0551
   07/10/2005 21:15:00      0.000     0.000    0.0523
   07/10/2005 21:20:00      0.000     0.000    0.0476
   07/10/2005 21:25:00      0.000     0.000    0.0435
   07/10/2005 21:30:00      0.000     0.000    0.0399
   07/10/2005 21:35:00      0.000     0.000    0.0367
   07/10/2005 21:40:00      0.000     0.000    0.0338
   07/10/2005 21:45:00      0.000     0.000    0.0313
   07/10/2005 21:50:00      0.000     0.000    0.0290
   07/10/2005 21:55:00      0.000     0.000    0.0269
   07/10/2005 22:00:00      0.000     0.000    0.0250
   07/10/2005 22:05:00      0.000     0.000    0.0233
   07/10/2005 22:10:00      0.000     0.000    0.0218
  
  
  <<< Subcatchment S9 >>>
  ---------------------------------------------------
  Date        Time        Precip.    Losses    Runoff
                            mm/hr     mm/hr       CMS
  ---------------------------------------------------
   07/10/2005 17:15:00      1.200     0.654    0.0000
   07/10/2005 17:20:00      3.600     1.962    0.0000
   07/10/2005 17:25:00      7.200     3.924    0.0000
   07/10/2005 17:30:00     10.800     5.886    0.0015
   07/10/2005 17:35:00      6.000     3.270    0.0050
   07/10/2005 17:40:00      3.600     1.962    0.0094
   07/10/2005 17:45:00      2.400     1.308    0.0123
   07/10/2005 17:50:00      3.600     1.962    0.0141
   07/10/2005 17:55:00      3.600     1.962    0.0174
   07/10/2005 18:00:00      3.600     1.962    0.0208
   07/10/2005 18:05:00      8.400     4.578    0.0242
   07/10/2005 18:10:00     21.600    11.772    0.0350
   07/10/2005 18:15:00     12.000     6.540    0.0725
   07/10/2005 18:20:00     24.000    13.080    0.0914
   07/10/2005 18:25:00     24.000    13.080    0.1412
   07/10/2005 18:30:00      7.200     3.924    0.1912
   07/10/2005 18:35:00     18.000     9.810    0.1851
   07/10/2005 18:40:00      4.800     2.616    0.2134
   07/10/2005 18:45:00     10.800     5.886    0.1962
   07/10/2005 18:50:00     25.200    13.734    0.2004
   07/10/2005 18:55:00     28.800    15.696    0.2511
   07/10/2005 19:00:00     54.000    29.430    0.3101
   07/10/2005 19:05:00     21.600    11.772    0.4651
   07/10/2005 19:10:00     10.800     5.886    0.4617
   07/10/2005 19:15:00      2.400     1.308    0.4143
   07/10/2005 19:20:00      1.200     0.654    0.3453
   07/10/2005 19:25:00      0.000     0.000    0.2884
   07/10/2005 19:30:00      0.000     0.000    0.2405
   07/10/2005 19:35:00      1.200     0.654    0.2030
   07/10/2005 19:40:00      0.000     0.000    0.1768
   07/10/2005 19:45:00      0.000     0.000    0.1521
   07/10/2005 19:50:00      0.000     0.000    0.1320
   07/10/2005 19:55:00      1.200     0.654    0.1154
   07/10/2005 20:00:00      8.400     4.578    0.1045
   07/10/2005 20:05:00      7.200     3.924    0.1129
   07/10/2005 20:10:00      2.400     1.308    0.1174
   07/10/2005 20:15:00      1.200     0.654    0.1092
   07/10/2005 20:20:00      2.400     1.308    0.0992
   07/10/2005 20:25:00      3.600     1.962    0.0936
   07/10/2005 20:30:00      3.600     1.962    0.0915
   07/10/2005 20:35:00      2.400     1.308    0.0896
   07/10/2005 20:40:00      1.200     0.654    0.0852
   07/10/2005 20:45:00      1.200     0.654    0.0787
   07/10/2005 20:50:00      0.000     0.000    0.0731
   07/10/2005 20:55:00      1.200     0.654    0.0657
   07/10/2005 21:00:00      1.200     0.654    0.0617
   07/10/2005 21:05:00      1.200     0.654    0.0582
   07/10/2005 21:10:00      1.200     0.654    0.0551
   07/10/2005 21:15:00      0.000     0.000    0.0523
   07/10/2005 21:20:00      0.000     0.000    0.0476
   07/10/2005 21:25:00      0.000     0.000    0.0435
   07/10/2005 21:30:00      0.000     0.000    0.0399
   07/10/2005 21:35:00      0.000     0.000    0.0367
   07/10/2005 21:40:00      0.000     0.000    0.0338
   07/10/2005 21:45:00      0.000     0.000    0.0313
   07/10/2005 21:50:00      0.000     0.000    0.0290
   07/10/2005 21:55:00      0.000     0.000    0.0269
   07/10/2005 22:00:00      0.000     0.000    0.0250
   07/10/2005 22:05:00      0.000     0.000    0.0233
   07/10/2005 22:10:00      0.000     0.000    0.0218
  
  
  <<< Subcatchment S10 >>>
  ---------------------------------------------------
  Date        Time        Precip.    Losses    Runoff
                            mm/hr     mm/hr       CMS
  ---------------------------------------------------
   07/10/2005 17:15:00      1.200     0.720    0.0000
   07/10/2005 17:20:00      3.600     2.160    0.0000
   07/10/2005 17:25:00      7.200     4.320    0.0003
   07/10/2005 17:30:00     10.800     6.480    0.0013
   07/10/2005 17:35:00      6.000     3.600    0.0040
   07/10/2005 17:40:00      3.600     2.160    0.0067
   07/10/2005 17:45:00      2.400     1.440    0.0076
   07/10/2005 17:50:00      3.600     2.160    0.0074
   07/10/2005 17:55:00      3.600     2.160    0.0083
   07/10/2005 18:00:00      3.600     2.160    0.0090
   07/10/2005 18:05:00      8.400     5.040    0.0095
   07/10/2005 18:10:00     21.600    12.960    0.0143
   07/10/2005 18:15:00     12.000     7.200    0.0337
   07/10/2005 18:20:00     24.000    14.400    0.0349
   07/10/2005 18:25:00     24.000    14.400    0.0522
   07/10/2005 18:30:00      7.200     4.320    0.0624
   07/10/2005 18:35:00     18.000    10.800    0.0431
   07/10/2005 18:40:00      4.800     2.880    0.0485
   07/10/2005 18:45:00     10.800     6.480    0.0335
   07/10/2005 18:50:00     25.200    15.120    0.0332
   07/10/2005 18:55:00     28.800    17.280    0.0529
   07/10/2005 19:00:00     54.000    32.400    0.0703
   07/10/2005 19:05:00     21.600    12.960    0.1236
   07/10/2005 19:10:00     10.800     6.480    0.0902
   07/10/2005 19:15:00      2.400     1.440    0.0601
   07/10/2005 19:20:00      1.200     0.720    0.0358
   07/10/2005 19:25:00      0.000     0.000    0.0229
   07/10/2005 19:30:00      0.000     0.000    0.0149
   07/10/2005 19:35:00      1.200     0.720    0.0104
   07/10/2005 19:40:00      0.000     0.000    0.0085
   07/10/2005 19:45:00      0.000     0.000    0.0063
   07/10/2005 19:50:00      0.000     0.000    0.0048
   07/10/2005 19:55:00      1.200     0.720    0.0038
   07/10/2005 20:00:00      8.400     5.040    0.0038
   07/10/2005 20:05:00      7.200     4.320    0.0091
   07/10/2005 20:10:00      2.400     1.440    0.0128
   07/10/2005 20:15:00      1.200     0.720    0.0112
   07/10/2005 20:20:00      2.400     1.440    0.0090
   07/10/2005 20:25:00      3.600     2.160    0.0085
   07/10/2005 20:30:00      3.600     2.160    0.0092
   07/10/2005 20:35:00      2.400     1.440    0.0097
   07/10/2005 20:40:00      1.200     0.720    0.0090
   07/10/2005 20:45:00      1.200     0.720    0.0076
   07/10/2005 20:50:00      0.000     0.000    0.0066
   07/10/2005 20:55:00      1.200     0.720    0.0050
   07/10/2005 21:00:00      1.200     0.720    0.0047
   07/10/2005 21:05:00      1.200     0.720    0.0045
   07/10/2005 21:10:00      1.200     0.720    0.0043
   07/10/2005 21:15:00      0.000     0.000    0.0042
   07/10/2005 21:20:00      0.000     0.000    0.0033
   07/10/2005 21:25:00      0.000     0.000    0.0027
   07/10/2005 21:30:00      0.000     0.000    0.0022
   07/10/2005 21:35:00      0.000     0.000    0.0019
   07/10/2005 21:40:00      0.000     0.000    0.0016
   07/10/2005 21:45:00      0.000     0.000    0.0014
   07/10/2005 21:50:00      0.000     0.000    0.0012
   07/10/2005 21:55:00      0.000     0.000    0.0010
   07/10/2005 22:00:00      0.000     0.000    0.0009
   07/10/2005 22:05:00      0.000     0.000    0.0008
   07/10/2005 22:10:00      0.000     0.000    0.0007
  
  
  <<< Subcatchment S11 >>>
  ---------------------------------------------------
  Date        Time        Precip.    Losses    Runoff
                            mm/hr     mm/hr       CMS
  ---------------------------------------------------
   07/10/2005 17:15:00      1.200     0.720    0.0000
   07/10/2005 17:20:00      3.600     2.160    0.0000
   07/10/2005 17:25:00      7.200     4.320    0.0000
   07/10/2005 17:30:00     10.800     6.480    0.0024
   07/10/2005 17:35:00      6.000     3.600    0.0079
   07/10/2005 17:40:00      3.600     2.160    0.0140
   07/10/2005 17:45:00      2.400     1.440    0.0170
   07/10/2005 17:50:00      3.600     2.160    0.0180
   07/10/2005 17:55:00      3.600     2.160    0.0209
   07/10/2005 18:00:00      3.600     2.160    0.0236
   07/10/2005 18:05:00      8.400     5.040    0.0259
   07/10/2005 18:10:00     21.600    12.960    0.0378
   07/10/2005 18:15:00     12.000     7.200    0.0833
   07/10/2005 18:20:00     24.000    14.400    0.0947
   07/10/2005 18:25:00     24.000    14.400    0.1422
   07/10/2005 18:30:00      7.200     4.320    0.1783
   07/10/2005 18:35:00     18.000    10.800    0.1427
   07/10/2005 18:40:00      4.800     2.880    0.1571
   07/10/2005 18:45:00     10.800     6.480    0.1219
   07/10/2005 18:50:00     25.200    15.120    0.1186
   07/10/2005 18:55:00     28.800    17.280    0.1652
   07/10/2005 19:00:00     54.000    32.400    0.2129
   07/10/2005 19:05:00     21.600    12.960    0.3541
   07/10/2005 19:10:00     10.800     6.480    0.2980
   07/10/2005 19:15:00      2.400     1.440    0.2237
   07/10/2005 19:20:00      1.200     0.720    0.1524
   07/10/2005 19:25:00      0.000     0.000    0.1078
   07/10/2005 19:30:00      0.000     0.000    0.0771
   07/10/2005 19:35:00      1.200     0.720    0.0574
   07/10/2005 19:40:00      0.000     0.000    0.0468
   07/10/2005 19:45:00      0.000     0.000    0.0367
   07/10/2005 19:50:00      0.000     0.000    0.0293
   07/10/2005 19:55:00      1.200     0.720    0.0239
   07/10/2005 20:00:00      8.400     5.040    0.0219
   07/10/2005 20:05:00      7.200     4.320    0.0341
   07/10/2005 20:10:00      2.400     1.440    0.0425
   07/10/2005 20:15:00      1.200     0.720    0.0387
   07/10/2005 20:20:00      2.400     1.440    0.0333
   07/10/2005 20:25:00      3.600     2.160    0.0316
   07/10/2005 20:30:00      3.600     2.160    0.0327
   07/10/2005 20:35:00      2.400     1.440    0.0336
   07/10/2005 20:40:00      1.200     0.720    0.0318
   07/10/2005 20:45:00      1.200     0.720    0.0280
   07/10/2005 20:50:00      0.000     0.000    0.0251
   07/10/2005 20:55:00      1.200     0.720    0.0207
   07/10/2005 21:00:00      1.200     0.720    0.0193
   07/10/2005 21:05:00      1.200     0.720    0.0182
   07/10/2005 21:10:00      1.200     0.720    0.0173
   07/10/2005 21:15:00      0.000     0.000    0.0165
   07/10/2005 21:20:00      0.000     0.000    0.0140
   07/10/2005 21:25:00      0.000     0.000    0.0120
   07/10/2005 21:30:00      0.000     0.000    0.0104
   07/10/2005 21:35:00      0.000     0.000    0.0091
   07/10/2005 21:40:00      0.000     0.000    0.0080
   07/10/2005 21:45:00      0.000     0.000    0.0070
   07/10/2005 21:50:00      0.000     0.000    0.0063
   07/10/2005 21:55:00      0.000     0.000    0.0056
   07/10/2005 22:00:00      0.000     0.000    0.0050
   07/10/2005 22:05:00      0.000     0.000    0.0045
   07/10/2005 22:10:00      0.000     0.000    0.0041
  
  
  <<< Subcatchment S12 >>>
  ---------------------------------------------------
  Date        Time        Precip.    Losses    Runoff
                            mm/hr     mm/hr       CMS
  ---------------------------------------------------
   07/10/2005 17:15:00      1.200     0.480    0.0000
   07/10/2005 17:20:00      3.600     1.440    0.0000
   07/10/2005 17:25:00      7.200     2.880    0.0000
   07/10/2005 17:30:00     10.800     4.320    0.0014
   07/10/2005 17:35:00      6.000     2.400    0.0050
   07/10/2005 17:40:00      3.600     1.440    0.0093
   07/10/2005 17:45:00      2.400     0.960    0.0121
   07/10/2005 17:50:00      3.600     1.440    0.0138
   07/10/2005 17:55:00      3.600     1.440    0.0169
   07/10/2005 18:00:00      3.600     1.440    0.0201
   07/10/2005 18:05:00      8.400     3.360    0.0233
   07/10/2005 18:10:00     21.600     8.640    0.0336
   07/10/2005 18:15:00     12.000     4.800    0.0698
   07/10/2005 18:20:00     24.000     9.600    0.0872
   07/10/2005 18:25:00     24.000     9.600    0.1343
   07/10/2005 18:30:00      7.200     2.880    0.1804
   07/10/2005 18:35:00     18.000     7.200    0.1715
   07/10/2005 18:40:00      4.800     1.920    0.1962
   07/10/2005 18:45:00     10.800     4.320    0.1772
   07/10/2005 18:50:00     25.200    10.080    0.1795
   07/10/2005 18:55:00     28.800    11.520    0.2259
   07/10/2005 19:00:00     54.000    21.600    0.2795
   07/10/2005 19:05:00     21.600     8.640    0.4231
   07/10/2005 19:10:00     10.800     4.320    0.4135
   07/10/2005 19:15:00      2.400     0.960    0.3642
   07/10/2005 19:20:00      1.200     0.480    0.2971
   07/10/2005 19:25:00      0.000     0.000    0.2436
   07/10/2005 19:30:00      0.000     0.000    0.1996
   07/10/2005 19:35:00      1.200     0.480    0.1659
   07/10/2005 19:40:00      0.000     0.000    0.1430
   07/10/2005 19:45:00      0.000     0.000    0.1216
   07/10/2005 19:50:00      0.000     0.000    0.1044
   07/10/2005 19:55:00      1.200     0.480    0.0904
   07/10/2005 20:00:00      8.400     3.360    0.0816
   07/10/2005 20:05:00      7.200     2.880    0.0901
   07/10/2005 20:10:00      2.400     0.960    0.0949
   07/10/2005 20:15:00      1.200     0.480    0.0881
   07/10/2005 20:20:00      2.400     0.960    0.0796
   07/10/2005 20:25:00      3.600     1.440    0.0750
   07/10/2005 20:30:00      3.600     1.440    0.0736
   07/10/2005 20:35:00      2.400     0.960    0.0724
   07/10/2005 20:40:00      1.200     0.480    0.0688
   07/10/2005 20:45:00      1.200     0.480    0.0633
   07/10/2005 20:50:00      0.000     0.000    0.0586
   07/10/2005 20:55:00      1.200     0.480    0.0522
   07/10/2005 21:00:00      1.200     0.480    0.0490
   07/10/2005 21:05:00      1.200     0.480    0.0461
   07/10/2005 21:10:00      1.200     0.480    0.0436
   07/10/2005 21:15:00      0.000     0.000    0.0414
   07/10/2005 21:20:00      0.000     0.000    0.0375
   07/10/2005 21:25:00      0.000     0.000    0.0341
   07/10/2005 21:30:00      0.000     0.000    0.0310
   07/10/2005 21:35:00      0.000     0.000    0.0284
   07/10/2005 21:40:00      0.000     0.000    0.0260
   07/10/2005 21:45:00      0.000     0.000    0.0240
   07/10/2005 21:50:00      0.000     0.000    0.0221
   07/10/2005 21:55:00      0.000     0.000    0.0204
   07/10/2005 22:00:00      0.000     0.000    0.0189
   07/10/2005 22:05:00      0.000     0.000    0.0176
   07/10/2005 22:10:00      0.000     0.000    0.0164
  
  
  <<< Subcatchment S13 >>>
  ---------------------------------------------------
  Date        Time        Precip.    Losses    Runoff
                            mm/hr     mm/hr       CMS
  ---------------------------------------------------
   07/10/2005 17:15:00      1.200     0.480    0.0000
   07/10/2005 17:20:00      3.600     1.440    0.0000
   07/10/2005 17:25:00      7.200     2.880    0.0000
   07/10/2005 17:30:00     10.800     4.320    0.0018
   07/10/2005 17:35:00      6.000     2.400    0.0061
   07/10/2005 17:40:00      3.600     1.440    0.0113
   07/10/2005 17:45:00      2.400     0.960    0.0146
   07/10/2005 17:50:00      3.600     1.440    0.0164
   07/10/2005 17:55:00      3.600     1.440    0.0199
   07/10/2005 18:00:00      3.600     1.440    0.0234
   07/10/2005 18:05:00      8.400     3.360    0.0268
   07/10/2005 18:10:00     21.600     8.640    0.0387
   07/10/2005 18:15:00     12.000     4.800    0.0811
   07/10/2005 18:20:00     24.000     9.600    0.0996
   07/10/2005 18:25:00     24.000     9.600    0.1523
   07/10/2005 18:30:00      7.200     2.880    0.2017
   07/10/2005 18:35:00     18.000     7.200    0.1853
   07/10/2005 18:40:00      4.800     1.920    0.2092
   07/10/2005 18:45:00     10.800     4.320    0.1830
   07/10/2005 18:50:00     25.200    10.080    0.1827
   07/10/2005 18:55:00     28.800    11.520    0.2328
   07/10/2005 19:00:00     54.000    21.600    0.2895
   07/10/2005 19:05:00     21.600     8.640    0.4467
   07/10/2005 19:10:00     10.800     4.320    0.4241
   07/10/2005 19:15:00      2.400     0.960    0.3611
   07/10/2005 19:20:00      1.200     0.480    0.2833
   07/10/2005 19:25:00      0.000     0.000    0.2246
   07/10/2005 19:30:00      0.000     0.000    0.1784
   07/10/2005 19:35:00      1.200     0.480    0.1445
   07/10/2005 19:40:00      0.000     0.000    0.1224
   07/10/2005 19:45:00      0.000     0.000    0.1020
   07/10/2005 19:50:00      0.000     0.000    0.0861
   07/10/2005 19:55:00      1.200     0.480    0.0734
   07/10/2005 20:00:00      8.400     3.360    0.0660
   07/10/2005 20:05:00      7.200     2.880    0.0766
   07/10/2005 20:10:00      2.400     0.960    0.0831
   07/10/2005 20:15:00      1.200     0.480    0.0768
   07/10/2005 20:20:00      2.400     0.960    0.0688
   07/10/2005 20:25:00      3.600     1.440    0.0648
   07/10/2005 20:30:00      3.600     1.440    0.0642
   07/10/2005 20:35:00      2.400     0.960    0.0637
   07/10/2005 20:40:00      1.200     0.480    0.0606
   07/10/2005 20:45:00      1.200     0.480    0.0553
   07/10/2005 20:50:00      0.000     0.000    0.0508
   07/10/2005 20:55:00      1.200     0.480    0.0447
   07/10/2005 21:00:00      1.200     0.480    0.0418
   07/10/2005 21:05:00      1.200     0.480    0.0393
   07/10/2005 21:10:00      1.200     0.480    0.0372
   07/10/2005 21:15:00      0.000     0.000    0.0353
   07/10/2005 21:20:00      0.000     0.000    0.0315
   07/10/2005 21:25:00      0.000     0.000    0.0283
   07/10/2005 21:30:00      0.000     0.000    0.0256
   07/10/2005 21:35:00      0.000     0.000    0.0231
   07/10/2005 21:40:00      0.000     0.000    0.0210
   07/10/2005 21:45:00      0.000     0.000    0.0192
   07/10/2005 21:50:00      0.000     0.000    0.0176
   07/10/2005 21:55:00      0.000     0.000    0.0161
   07/10/2005 22:00:00      0.000     0.000    0.0148
   07/10/2005 22:05:00      0.000     0.000    0.0137
   07/10/2005 22:10:00      0.000     0.000    0.0127
  
  
  <<< Subcatchment S14 >>>
  ---------------------------------------------------
  Date        Time        Precip.    Losses    Runoff
                            mm/hr     mm/hr       CMS
  ---------------------------------------------------
   07/10/2005 17:15:00      1.200     0.720    0.0000
   07/10/2005 17:20:00      3.600     2.160    0.0000
   07/10/2005 17:25:00      7.200     4.320    0.0000
   07/10/2005 17:30:00     10.800     6.480    0.0014
   07/10/2005 17:35:00      6.000     3.600    0.0049
   07/10/2005 17:40:00      3.600     2.160    0.0090
   07/10/2005 17:45:00      2.400     1.440    0.0116
   07/10/2005 17:50:00      3.600     2.160    0.0130
   07/10/2005 17:55:00      3.600     2.160    0.0157
   07/10/2005 18:00:00      3.600     2.160    0.0184
   07/10/2005 18:05:00      8.400     5.040    0.0211
   07/10/2005 18:10:00     21.600    12.960    0.0305
   07/10/2005 18:15:00     12.000     7.200    0.0640
   07/10/2005 18:20:00     24.000    14.400    0.0783
   07/10/2005 18:25:00     24.000    14.400    0.1196
   07/10/2005 18:30:00      7.200     4.320    0.1579
   07/10/2005 18:35:00     18.000    10.800    0.1441
   07/10/2005 18:40:00      4.800     2.880    0.1624
   07/10/2005 18:45:00     10.800     6.480    0.1412
   07/10/2005 18:50:00     25.200    15.120    0.1406
   07/10/2005 18:55:00     28.800    17.280    0.1798
   07/10/2005 19:00:00     54.000    32.400    0.2238
   07/10/2005 19:05:00     21.600    12.960    0.3466
   07/10/2005 19:10:00     10.800     6.480    0.3273
   07/10/2005 19:15:00      2.400     1.440    0.2769
   07/10/2005 19:20:00      1.200     0.720    0.2157
   07/10/2005 19:25:00      0.000     0.000    0.1700
   07/10/2005 19:30:00      0.000     0.000    0.1343
   07/10/2005 19:35:00      1.200     0.720    0.1083
   07/10/2005 19:40:00      0.000     0.000    0.0915
   07/10/2005 19:45:00      0.000     0.000    0.0760
   07/10/2005 19:50:00      0.000     0.000    0.0639
   07/10/2005 19:55:00      1.200     0.720    0.0543
   07/10/2005 20:00:00      8.400     5.040    0.0488
   07/10/2005 20:05:00      7.200     4.320    0.0573
   07/10/2005 20:10:00      2.400     1.440    0.0625
   07/10/2005 20:15:00      1.200     0.720    0.0578
   07/10/2005 20:20:00      2.400     1.440    0.0516
   07/10/2005 20:25:00      3.600     2.160    0.0487
   07/10/2005 20:30:00      3.600     2.160    0.0483
   07/10/2005 20:35:00      2.400     1.440    0.0480
   07/10/2005 20:40:00      1.200     0.720    0.0456
   07/10/2005 20:45:00      1.200     0.720    0.0416
   07/10/2005 20:50:00      0.000     0.000    0.0382
   07/10/2005 20:55:00      1.200     0.720    0.0335
   07/10/2005 21:00:00      1.200     0.720    0.0313
   07/10/2005 21:05:00      1.200     0.720    0.0295
   07/10/2005 21:10:00      1.200     0.720    0.0278
   07/10/2005 21:15:00      0.000     0.000    0.0265
   07/10/2005 21:20:00      0.000     0.000    0.0236
   07/10/2005 21:25:00      0.000     0.000    0.0211
   07/10/2005 21:30:00      0.000     0.000    0.0190
   07/10/2005 21:35:00      0.000     0.000    0.0172
   07/10/2005 21:40:00      0.000     0.000    0.0156
   07/10/2005 21:45:00      0.000     0.000    0.0142
   07/10/2005 21:50:00      0.000     0.000    0.0130
   07/10/2005 21:55:00      0.000     0.000    0.0119
   07/10/2005 22:00:00      0.000     0.000    0.0110
   07/10/2005 22:05:00      0.000     0.000    0.0101
   07/10/2005 22:10:00      0.000     0.000    0.0093
  
  
  <<< Subcatchment S15 >>>
  ---------------------------------------------------
  Date        Time        Precip.    Losses    Runoff
                            mm/hr     mm/hr       CMS
  ---------------------------------------------------
   07/10/2005 17:15:00      1.200     0.600    0.0000
   07/10/2005 17:20:00      3.600     1.800    0.0000
   07/10/2005 17:25:00      7.200     3.600    0.0000
   07/10/2005 17:30:00     10.800     5.400    0.0014
   07/10/2005 17:35:00      6.000     3.000    0.0049
   07/10/2005 17:40:00      3.600     1.800    0.0089
   07/10/2005 17:45:00      2.400     1.200    0.0115
   07/10/2005 17:50:00      3.600     1.800    0.0129
   07/10/2005 17:55:00      3.600     1.800    0.0156
   07/10/2005 18:00:00      3.600     1.800    0.0182
   07/10/2005 18:05:00      8.400     4.200    0.0208
   07/10/2005 18:10:00     21.600    10.800    0.0301
   07/10/2005 18:15:00     12.000     6.000    0.0633
   07/10/2005 18:20:00     24.000    12.000    0.0773
   07/10/2005 18:25:00     24.000    12.000    0.1180
   07/10/2005 18:30:00      7.200     3.600    0.1554
   07/10/2005 18:35:00     18.000     9.000    0.1412
   07/10/2005 18:40:00      4.800     2.400    0.1588
   07/10/2005 18:45:00     10.800     5.400    0.1375
   07/10/2005 18:50:00     25.200    12.600    0.1367
   07/10/2005 18:55:00     28.800    14.400    0.1751
   07/10/2005 19:00:00     54.000    27.000    0.2183
   07/10/2005 19:05:00     21.600    10.800    0.3390
   07/10/2005 19:10:00     10.800     5.400    0.3187
   07/10/2005 19:15:00      2.400     1.200    0.2684
   07/10/2005 19:20:00      1.200     0.600    0.2080
   07/10/2005 19:25:00      0.000     0.000    0.1632
   07/10/2005 19:30:00      0.000     0.000    0.1284
   07/10/2005 19:35:00      1.200     0.600    0.1032
   07/10/2005 19:40:00      0.000     0.000    0.0870
   07/10/2005 19:45:00      0.000     0.000    0.0721
   07/10/2005 19:50:00      0.000     0.000    0.0605
   07/10/2005 19:55:00      1.200     0.600    0.0513
   07/10/2005 20:00:00      8.400     4.200    0.0461
   07/10/2005 20:05:00      7.200     3.600    0.0545
   07/10/2005 20:10:00      2.400     1.200    0.0598
   07/10/2005 20:15:00      1.200     0.600    0.0552
   07/10/2005 20:20:00      2.400     1.200    0.0493
   07/10/2005 20:25:00      3.600     1.800    0.0465
   07/10/2005 20:30:00      3.600     1.800    0.0462
   07/10/2005 20:35:00      2.400     1.200    0.0460
   07/10/2005 20:40:00      1.200     0.600    0.0437
   07/10/2005 20:45:00      1.200     0.600    0.0398
   07/10/2005 20:50:00      0.000     0.000    0.0365
   07/10/2005 20:55:00      1.200     0.600    0.0319
   07/10/2005 21:00:00      1.200     0.600    0.0299
   07/10/2005 21:05:00      1.200     0.600    0.0281
   07/10/2005 21:10:00      1.200     0.600    0.0266
   07/10/2005 21:15:00      0.000     0.000    0.0252
   07/10/2005 21:20:00      0.000     0.000    0.0225
   07/10/2005 21:25:00      0.000     0.000    0.0201
   07/10/2005 21:30:00      0.000     0.000    0.0181
   07/10/2005 21:35:00      0.000     0.000    0.0163
   07/10/2005 21:40:00      0.000     0.000    0.0148
   07/10/2005 21:45:00      0.000     0.000    0.0134
   07/10/2005 21:50:00      0.000     0.000    0.0123
   07/10/2005 21:55:00      0.000     0.000    0.0112
   07/10/2005 22:00:00      0.000     0.000    0.0103
   07/10/2005 22:05:00      0.000     0.000    0.0095
   07/10/2005 22:10:00      0.000     0.000    0.0088
  
  
  ************
  Node Results
  ************
  
  <<< Node J0 >>>
  ----------------------------------------------------------------
                           Inflow  Flooding     Depth      Head
  Date        Time            CMS       CMS    meters    meters
  ----------------------------------------------------------------
   07/10/2005 17:15:00      0.000     0.000     0.011    31.001
   07/10/2005 17:20:00      0.000     0.000     0.006    30.996
   07/10/2005 17:25:00      0.000     0.000     0.005    30.995
   07/10/2005 17:30:00      0.001     0.000     0.012    31.002
   07/10/2005 17:35:00      0.005     0.000     0.024    31.014
   07/10/2005 17:40:00      0.009     0.000     0.034    31.024
   07/10/2005 17:45:00      0.011     0.000     0.040    31.030
[...]
   07/10/2005 17:55:00      0.031     0.770     0.067     0.006
   07/10/2005 18:00:00      0.039     0.819     0.076     0.007
   07/10/2005 18:05:00      0.047     0.857     0.083     0.008
   07/10/2005 18:10:00      0.056     0.896     0.091     0.009
   07/10/2005 18:15:00      0.080     0.990     0.108     0.011
   07/10/2005 18:20:00      0.144     1.189     0.140     0.017
   07/10/2005 18:25:00      0.217     1.345     0.171     0.023
   07/10/2005 18:30:00      0.322     1.510     0.206     0.030
   07/10/2005 18:35:00      0.403     1.624     0.229     0.035
   07/10/2005 18:40:00      0.401     1.602     0.231     0.035
   07/10/2005 18:45:00      0.403     1.604     0.232     0.036
   07/10/2005 18:50:00      0.370     1.552     0.223     0.034
   07/10/2005 18:55:00      0.373     1.548     0.225     0.034
   07/10/2005 19:00:00      0.459     1.657     0.247     0.039
   07/10/2005 19:05:00      0.635     1.821     0.289     0.049
   07/10/2005 19:10:00      0.868     2.034     0.331     0.060
   07/10/2005 19:15:00      0.811     1.974     0.323     0.058
   07/10/2005 19:20:00      0.665     1.852     0.295     0.051
   07/10/2005 19:25:00      0.516     1.703     0.263     0.043
   07/10/2005 19:30:00      0.403     1.578     0.234     0.036
   07/10/2005 19:35:00      0.316     1.454     0.209     0.031
   07/10/2005 19:40:00      0.253     1.357     0.189     0.026
   07/10/2005 19:45:00      0.212     1.288     0.174     0.023
   07/10/2005 19:50:00      0.177     1.211     0.160     0.021
   07/10/2005 19:55:00      0.149     1.145     0.147     0.018
   07/10/2005 20:00:00      0.127     1.089     0.137     0.016
   07/10/2005 20:05:00      0.115     1.055     0.131     0.015
   07/10/2005 20:10:00      0.122     1.079     0.134     0.016
   07/10/2005 20:15:00      0.135     1.125     0.139     0.017
   07/10/2005 20:20:00      0.136     1.133     0.139     0.017
   07/10/2005 20:25:00      0.127     1.109     0.135     0.016
   07/10/2005 20:30:00      0.119     1.084     0.132     0.016
   07/10/2005 20:35:00      0.115     1.075     0.130     0.015
   07/10/2005 20:40:00      0.114     1.073     0.129     0.015
   07/10/2005 20:45:00      0.110     1.064     0.127     0.015
   07/10/2005 20:50:00      0.103     1.044     0.123     0.014
   07/10/2005 20:55:00      0.095     1.019     0.118     0.013
   07/10/2005 21:00:00      0.085     0.982     0.113     0.012
   07/10/2005 21:05:00      0.077     0.951     0.108     0.012
   07/10/2005 21:10:00      0.072     0.928     0.104     0.011
   07/10/2005 21:15:00      0.067     0.910     0.101     0.010
   07/10/2005 21:20:00      0.063     0.894     0.098     0.010
   07/10/2005 21:25:00      0.058     0.873     0.095     0.009
   07/10/2005 21:30:00      0.053     0.847     0.091     0.009
   07/10/2005 21:35:00      0.048     0.819     0.087     0.008
   07/10/2005 21:40:00      0.043     0.792     0.083     0.008
   07/10/2005 21:45:00      0.039     0.766     0.079     0.007
   07/10/2005 21:50:00      0.035     0.742     0.075     0.007
   07/10/2005 21:55:00      0.032     0.720     0.072     0.006
   07/10/2005 22:00:00      0.029     0.699     0.069     0.006
   07/10/2005 22:05:00      0.027     0.680     0.067     0.006
   07/10/2005 22:10:00      0.025     0.663     0.064     0.005
  
  
  <<< Link C21 >>>
  ----------------------------------------------------------------
                             Flow  Velocity     Depth  Capacity/
  Date        Time            CMS     m/sec    meters   Setting 
  ----------------------------------------------------------------
   07/10/2005 17:15:00      0.000     0.000     0.000     0.000
   07/10/2005 17:20:00      0.000     0.000     0.001     0.000
   07/10/2005 17:25:00      0.000     0.397     0.004     0.001
   07/10/2005 17:30:00      0.001     0.605     0.010     0.002
   07/10/2005 17:35:00      0.003     0.923     0.020     0.005
   07/10/2005 17:40:00      0.008     1.045     0.031     0.009
   07/10/2005 17:45:00      0.011     0.962     0.042     0.014
   07/10/2005 17:50:00      0.012     0.831     0.050     0.019
   07/10/2005 17:55:00      0.015     0.815     0.058     0.023
   07/10/2005 18:00:00      0.017     0.835     0.063     0.027
   07/10/2005 18:05:00      0.020     0.857     0.068     0.030
   07/10/2005 18:10:00      0.028     1.002     0.077     0.035
   07/10/2005 18:15:00      0.056     1.414     0.098     0.051
   07/10/2005 18:20:00      0.074     1.387     0.120     0.068
   07/10/2005 18:25:00      0.110     1.553     0.146     0.090
   07/10/2005 18:30:00      0.149     1.648     0.172     0.115
   07/10/2005 18:35:00      0.144     1.486     0.181     0.123
   07/10/2005 18:40:00      0.156     1.574     0.184     0.126
   07/10/2005 18:45:00      0.142     1.472     0.180     0.122
   07/10/2005 18:50:00      0.137     1.487     0.175     0.117
   07/10/2005 18:55:00      0.168     1.710     0.183     0.125
   07/10/2005 19:00:00      0.211     1.845     0.203     0.146
   07/10/2005 19:05:00      0.321     2.170     0.243     0.188
   07/10/2005 19:10:00      0.322     1.948     0.263     0.210
   07/10/2005 19:15:00      0.276     1.798     0.250     0.196
   07/10/2005 19:20:00      0.218     1.645     0.225     0.168
   07/10/2005 19:25:00      0.171     1.533     0.200     0.142
   07/10/2005 19:30:00      0.135     1.428     0.178     0.120
   07/10/2005 19:35:00      0.108     1.346     0.159     0.102
   07/10/2005 19:40:00      0.091     1.291     0.145     0.089
   07/10/2005 19:45:00      0.075     1.220     0.133     0.079
   07/10/2005 19:50:00      0.063     1.159     0.122     0.069
   07/10/2005 19:55:00      0.054     1.102     0.112     0.062
   07/10/2005 20:00:00      0.047     1.074     0.105     0.056
   07/10/2005 20:05:00      0.053     1.197     0.105     0.056
   07/10/2005 20:10:00      0.059     1.264     0.109     0.059
   07/10/2005 20:15:00      0.056     1.184     0.111     0.061
   07/10/2005 20:20:00      0.051     1.095     0.109     0.059
   07/10/2005 20:25:00      0.047     1.066     0.105     0.056
   07/10/2005 20:30:00      0.046     1.079     0.103     0.055
   07/10/2005 20:35:00      0.046     1.089     0.102     0.054
   07/10/2005 20:40:00      0.044     1.066     0.101     0.053
   07/10/2005 20:45:00      0.041     1.019     0.099     0.051
   07/10/2005 20:50:00      0.037     0.981     0.095     0.049
   07/10/2005 20:55:00      0.033     0.932     0.091     0.045
   07/10/2005 21:00:00      0.030     0.914     0.087     0.042
   07/10/2005 21:05:00      0.029     0.910     0.083     0.040
   07/10/2005 21:10:00      0.027     0.903     0.081     0.038
   07/10/2005 21:15:00      0.026     0.892     0.079     0.037
   07/10/2005 21:20:00      0.023     0.853     0.076     0.035
   07/10/2005 21:25:00      0.021     0.812     0.073     0.033
   07/10/2005 21:30:00      0.019     0.781     0.069     0.030
   07/10/2005 21:35:00      0.017     0.757     0.066     0.028
   07/10/2005 21:40:00      0.015     0.737     0.063     0.026
   07/10/2005 21:45:00      0.014     0.720     0.060     0.025
   07/10/2005 21:50:00      0.013     0.698     0.058     0.023
   07/10/2005 21:55:00      0.012     0.677     0.055     0.022
   07/10/2005 22:00:00      0.011     0.658     0.053     0.021
   07/10/2005 22:05:00      0.010     0.642     0.051     0.019
   07/10/2005 22:10:00      0.009     0.626     0.049     0.018
  
  
  <<< Link C23 >>>
  ----------------------------------------------------------------
                             Flow  Velocity     Depth  Capacity/
  Date        Time            CMS     m/sec    meters   Setting 
  ----------------------------------------------------------------
   07/10/2005 17:15:00      0.068     1.002     0.090     0.007
   07/10/2005 17:20:00      0.059     1.002     0.082     0.006
   07/10/2005 17:25:00      0.044     0.984     0.069     0.004
   07/10/2005 17:30:00      0.033     0.937     0.057     0.003
   07/10/2005 17:35:00      0.025     0.887     0.049     0.003
   07/10/2005 17:40:00      0.022     0.866     0.046     0.003
   07/10/2005 17:45:00      0.027     0.901     0.052     0.003
   07/10/2005 17:50:00      0.047     0.986     0.072     0.005
   07/10/2005 17:55:00      0.085     1.005     0.104     0.008
   07/10/2005 18:00:00      0.131     1.014     0.139     0.013
   07/10/2005 18:05:00      0.172     1.097     0.157     0.015
   07/10/2005 18:10:00      0.211     1.167     0.173     0.018
   07/10/2005 18:15:00      0.273     1.260     0.195     0.021
   07/10/2005 18:20:00      0.447     1.454     0.248     0.030
   07/10/2005 18:25:00      0.758     1.714     0.318     0.043
   07/10/2005 18:30:00      1.179     1.956     0.392     0.059
   07/10/2005 18:35:00      1.663     2.187     0.460     0.075
   07/10/2005 18:40:00      1.822     2.263     0.479     0.079
   07/10/2005 18:45:00      1.858     2.276     0.484     0.080
   07/10/2005 18:50:00      1.780     2.250     0.473     0.078
   07/10/2005 18:55:00      1.724     2.228     0.466     0.076
   07/10/2005 19:00:00      1.967     2.300     0.500     0.084
   07/10/2005 19:05:00      2.586     2.477     0.573     0.103
   07/10/2005 19:10:00      3.733     2.771     0.684     0.132
   07/10/2005 19:15:00      3.929     2.847     0.696     0.136
   07/10/2005 19:20:00      3.393     2.728     0.647     0.122
   07/10/2005 19:25:00      2.739     2.561     0.583     0.105
   07/10/2005 19:30:00      2.184     2.396     0.522     0.090
   07/10/2005 19:35:00      1.756     2.241     0.470     0.077
   07/10/2005 19:40:00      1.430     2.112     0.425     0.067
   07/10/2005 19:45:00      1.197     1.994     0.391     0.059
   07/10/2005 19:50:00      1.014     1.911     0.360     0.052
   07/10/2005 19:55:00      0.865     1.819     0.334     0.047
   07/10/2005 20:00:00      0.742     1.731     0.311     0.042
   07/10/2005 20:05:00      0.658     1.668     0.295     0.039
   07/10/2005 20:10:00      0.644     1.657     0.292     0.038
   07/10/2005 20:15:00      0.682     1.681     0.300     0.040
   07/10/2005 20:20:00      0.704     1.699     0.304     0.041
   07/10/2005 20:25:00      0.677     1.681     0.299     0.040
   07/10/2005 20:30:00      0.636     1.652     0.290     0.038
   07/10/2005 20:35:00      0.608     1.629     0.284     0.037
   07/10/2005 20:40:00      0.593     1.615     0.280     0.036
   07/10/2005 20:45:00      0.576     1.601     0.277     0.035
   07/10/2005 20:50:00      0.548     1.575     0.270     0.034
   07/10/2005 20:55:00      0.511     1.541     0.261     0.033
   07/10/2005 21:00:00      0.468     1.499     0.251     0.031
   07/10/2005 21:05:00      0.427     1.459     0.240     0.029
   07/10/2005 21:10:00      0.394     1.425     0.231     0.027
   07/10/2005 21:15:00      0.368     1.397     0.224     0.026
   07/10/2005 21:20:00      0.346     1.374     0.218     0.025
   07/10/2005 21:25:00      0.324     1.345     0.211     0.024
   07/10/2005 21:30:00      0.299     1.309     0.203     0.022
   07/10/2005 21:35:00      0.273     1.271     0.194     0.021
   07/10/2005 21:40:00      0.249     1.233     0.186     0.020
   07/10/2005 21:45:00      0.227     1.197     0.178     0.019
   07/10/2005 21:50:00      0.206     1.163     0.170     0.017
   07/10/2005 21:55:00      0.189     1.132     0.163     0.016
   07/10/2005 22:00:00      0.173     1.105     0.157     0.015
   07/10/2005 22:05:00      0.159     1.079     0.151     0.014
   07/10/2005 22:10:00      0.147     1.056     0.146     0.014
  
  
  <<< Link C24 >>>
  ----------------------------------------------------------------
                             Flow  Velocity     Depth  Capacity/
  Date        Time            CMS     m/sec    meters   Setting 
  ----------------------------------------------------------------
   07/10/2005 17:15:00      0.000     0.000     0.000     0.000
   07/10/2005 17:20:00      0.000     0.000     0.001     0.000
   07/10/2005 17:25:00      0.000     0.180     0.004     0.001
   07/10/2005 17:30:00      0.001     0.381     0.010     0.002
   07/10/2005 17:35:00      0.003     0.587     0.022     0.005
   07/10/2005 17:40:00      0.007     0.701     0.037     0.010
   07/10/2005 17:45:00      0.011     0.719     0.048     0.015
   07/10/2005 17:50:00      0.012     0.712     0.054     0.018
   07/10/2005 17:55:00      0.015     0.741     0.058     0.021
   07/10/2005 18:00:00      0.017     0.790     0.063     0.023
   07/10/2005 18:05:00      0.020     0.831     0.068     0.025
   07/10/2005 18:10:00      0.027     0.926     0.076     0.030
   07/10/2005 18:15:00      0.053     1.182     0.103     0.047
   07/10/2005 18:20:00      0.075     1.258     0.124     0.062
   07/10/2005 18:25:00      0.108     1.427     0.147     0.080
   07/10/2005 18:30:00      0.148     1.570     0.171     0.099
   07/10/2005 18:35:00      0.148     1.551     0.172     0.100
   07/10/2005 18:40:00      0.158     1.623     0.175     0.102
   07/10/2005 18:45:00      0.147     1.579     0.169     0.098
   07/10/2005 18:50:00      0.141     1.583     0.164     0.093
   07/10/2005 18:55:00      0.170     1.703     0.178     0.105
   07/10/2005 19:00:00      0.214     1.807     0.200     0.125
   07/10/2005 19:05:00      0.321     2.041     0.245     0.166
   07/10/2005 19:10:00      0.331     2.019     0.252     0.173
   07/10/2005 19:15:00      0.287     1.954     0.233     0.155
   07/10/2005 19:20:00      0.229     1.840     0.207     0.131
   07/10/2005 19:25:00      0.181     1.732     0.183     0.110
   07/10/2005 19:30:00      0.143     1.627     0.163     0.092
   07/10/2005 19:35:00      0.115     1.530     0.146     0.079
   07/10/2005 19:40:00      0.096     1.454     0.134     0.070
   07/10/2005 19:45:00      0.081     1.377     0.123     0.062
   07/10/2005 19:50:00      0.068     1.307     0.113     0.054
   07/10/2005 19:55:00      0.057     1.246     0.105     0.048
   07/10/2005 20:00:00      0.051     1.203     0.098     0.044
   07/10/2005 20:05:00      0.054     1.250     0.101     0.046
   07/10/2005 20:10:00      0.061     1.281     0.107     0.050
   07/10/2005 20:15:00      0.060     1.238     0.108     0.051
   07/10/2005 20:20:00      0.054     1.184     0.103     0.048
   07/10/2005 20:25:00      0.050     1.159     0.099     0.045
   07/10/2005 20:30:00      0.048     1.157     0.098     0.044
   07/10/2005 20:35:00      0.048     1.155     0.098     0.044
   07/10/2005 20:40:00      0.046     1.137     0.096     0.043
   07/10/2005 20:45:00      0.043     1.105     0.093     0.041
   07/10/2005 20:50:00      0.039     1.078     0.090     0.038
   07/10/2005 20:55:00      0.035     1.040     0.085     0.036
   07/10/2005 21:00:00      0.032     1.013     0.081     0.033
   07/10/2005 21:05:00      0.030     0.998     0.078     0.032
   07/10/2005 21:10:00      0.028     0.981     0.076     0.030
   07/10/2005 21:15:00      0.027     0.965     0.074     0.029
   07/10/2005 21:20:00      0.025     0.936     0.072     0.028
   07/10/2005 21:25:00      0.022     0.904     0.068     0.026
   07/10/2005 21:30:00      0.020     0.879     0.065     0.024
   07/10/2005 21:35:00      0.018     0.853     0.061     0.022
   07/10/2005 21:40:00      0.016     0.830     0.058     0.021
   07/10/2005 21:45:00      0.015     0.808     0.056     0.019
   07/10/2005 21:50:00      0.014     0.791     0.053     0.018
   07/10/2005 21:55:00      0.012     0.775     0.051     0.017
   07/10/2005 22:00:00      0.011     0.761     0.049     0.016
   07/10/2005 22:05:00      0.010     0.748     0.047     0.015
   07/10/2005 22:10:00      0.010     0.736     0.045     0.014
  
  
  <<< Link C22 >>>
  ----------------------------------------------------------------
                             Flow  Velocity     Depth  Capacity/
  Date        Time            CMS     m/sec    meters   Setting 
  ----------------------------------------------------------------
   07/10/2005 17:15:00      0.000     0.000     0.036     0.007
   07/10/2005 17:20:00      0.000     0.000     0.029     0.005
   07/10/2005 17:25:00      0.000     0.007     0.024     0.004
   07/10/2005 17:30:00      0.000     0.067     0.023     0.003
   07/10/2005 17:35:00      0.002     0.310     0.026     0.004
   07/10/2005 17:40:00      0.006     0.635     0.034     0.006
   07/10/2005 17:45:00      0.010     0.759     0.043     0.009
   07/10/2005 17:50:00      0.013     0.764     0.050     0.011
   07/10/2005 17:55:00      0.016     0.745     0.057     0.014
   07/10/2005 18:00:00      0.019     0.764     0.064     0.016
   07/10/2005 18:05:00      0.023     0.794     0.069     0.019
   07/10/2005 18:10:00      0.030     0.906     0.077     0.022
   07/10/2005 18:15:00      0.058     1.204     0.099     0.031
   07/10/2005 18:20:00      0.086     1.307     0.122     0.043
   07/10/2005 18:25:00      0.126     1.440     0.149     0.057
   07/10/2005 18:30:00      0.177     1.568     0.177     0.073
   07/10/2005 18:35:00      0.187     1.500     0.189     0.081
   07/10/2005 18:40:00      0.206     1.588     0.195     0.084
   07/10/2005 18:45:00      0.201     1.562     0.193     0.084
   07/10/2005 18:50:00      0.199     1.591     0.190     0.081
   07/10/2005 18:55:00      0.238     1.770     0.199     0.087
   07/10/2005 19:00:00      0.296     1.903     0.220     0.101
   07/10/2005 19:05:00      0.430     2.151     0.262     0.130
   07/10/2005 19:10:00      0.462     2.067     0.284     0.145
   07/10/2005 19:15:00      0.425     1.989     0.275     0.139
   07/10/2005 19:20:00      0.361     1.912     0.252     0.123
   07/10/2005 19:25:00      0.302     1.845     0.229     0.106
   07/10/2005 19:30:00      0.252     1.781     0.207     0.092
   07/10/2005 19:35:00      0.213     1.723     0.188     0.080
   07/10/2005 19:40:00      0.184     1.676     0.174     0.071
   07/10/2005 19:45:00      0.159     1.620     0.161     0.064
   07/10/2005 19:50:00      0.138     1.561     0.149     0.057
   07/10/2005 19:55:00      0.120     1.509     0.139     0.052
   07/10/2005 20:00:00      0.108     1.469     0.132     0.048
   07/10/2005 20:05:00      0.110     1.508     0.131     0.047
   07/10/2005 20:10:00      0.116     1.543     0.134     0.049
   07/10/2005 20:15:00      0.112     1.494     0.134     0.049
   07/10/2005 20:20:00      0.103     1.421     0.130     0.047
   07/10/2005 20:25:00      0.095     1.381     0.126     0.045
   07/10/2005 20:30:00      0.092     1.373     0.124     0.044
   07/10/2005 20:35:00      0.090     1.368     0.122     0.043
   07/10/2005 20:40:00      0.087     1.346     0.121     0.042
   07/10/2005 20:45:00      0.081     1.308     0.117     0.040
   07/10/2005 20:50:00      0.075     1.274     0.114     0.038
   07/10/2005 20:55:00      0.068     1.233     0.109     0.036
   07/10/2005 21:00:00      0.063     1.208     0.105     0.034
   07/10/2005 21:05:00      0.059     1.194     0.101     0.032
   07/10/2005 21:10:00      0.056     1.179     0.098     0.031
   07/10/2005 21:15:00      0.053     1.164     0.095     0.030
   07/10/2005 21:20:00      0.049     1.135     0.092     0.028
   07/10/2005 21:25:00      0.045     1.101     0.089     0.027
   07/10/2005 21:30:00      0.041     1.074     0.085     0.025
   07/10/2005 21:35:00      0.038     1.049     0.082     0.024
   07/10/2005 21:40:00      0.035     1.024     0.078     0.022
   07/10/2005 21:45:00      0.032     1.001     0.075     0.021
   07/10/2005 21:50:00      0.030     0.980     0.072     0.020
   07/10/2005 21:55:00      0.028     0.960     0.070     0.019
   07/10/2005 22:00:00      0.026     0.942     0.067     0.018
   07/10/2005 22:05:00      0.024     0.924     0.065     0.017
   07/10/2005 22:10:00      0.022     0.908     0.063     0.016
  

  Analysis begun on:  Wed Mar 27 16:52:35 2019
  Analysis ended on:  Wed Mar 27 16:52:36 2019
  Total elapsed time: 00:00:01