
  EPA STORM WATER MANAGEMENT MODEL - VERSION 5.1 (Build 5.1.012)
  --------------------------------------------------------------

  
  *************
  Element Count
  *************
  Number of rain gages ...... 1
  Number of subcatchments ... 15
  Number of nodes ........... 25
  Number of links ........... 24
  Number of pollutants ...... 0
  Number of land uses ....... 0
  
  
  ****************
  Raingage Summary
  ****************
                                                      Data       Recording
  Name                 Data Source                    Type       Interval 
  ------------------------------------------------------------------------
  1                    20050710                       VOLUME       5 min.
  
  
  ********************
  Subcatchment Summary
  ********************
  Name                       Area     Width   %Imperv    %Slope Rain Gage            Outlet              
  -----------------------------------------------------------------------------------------------------------
  S1                         2.21    400.00     80.00    0.0500 1                    J1                  
  S2                         7.25    400.00     50.00    0.0500 1                    J0                  
  S3                         1.53    400.00     30.00    0.0500 1                    J4                  
  S4                         6.18    400.00     20.00    0.0500 1                    J8                  
  S5                         9.28    400.00     20.00    0.0500 1                    J7                  
  S6                         6.98    400.00     60.00    0.0500 1                    J5                  
  S7                         3.28    400.00     40.00    0.0500 1                    J25                 
  S8                        10.68    400.00     70.00    0.0500 1                    J11                 
  S9                        16.43    400.00     45.50    0.0500 1                    J14                 
  S10                        2.73    400.00     40.00    0.0500 1                    J9                  
  S11                        9.27    700.00     40.00    0.0500 1                    J10                 
  S12                       10.58    400.00     60.00    0.0500 1                    J17                 
  S13                       10.08    500.00     60.00    0.0500 1                    J24                 
  S14                       11.53    400.00     40.00    0.0500 1                    J15                 
  S15                        8.92    400.00     50.00    0.0500 1                    J23                 
  
  
  ************
  Node Summary
  ************
                                           Invert      Max.    Ponded    External
  Name                 Type                 Elev.     Depth      Area    Inflow  
  -------------------------------------------------------------------------------
  J0                   JUNCTION             30.99      4.00       0.0
  J1                   JUNCTION             28.99      4.00       0.0
  J2                   JUNCTION             25.99      4.00       0.0
  J3                   JUNCTION             30.99      4.00       0.0
  J4                   JUNCTION             33.99      4.00       0.0
  J5                   JUNCTION             28.99      4.00       0.0
  J6                   JUNCTION             23.79      4.00       0.0
  J7                   JUNCTION             28.39      4.00       0.0
  J8                   JUNCTION             29.99      4.00       0.0
  J9                   JUNCTION             28.69      4.00       0.0
  J10                  JUNCTION             25.99      4.00       0.0
  J11                  JUNCTION             25.69      4.00       0.0
  J12                  JUNCTION             22.79      4.00       0.0
  J13                  JUNCTION             25.29      4.00       0.0
  J14                  JUNCTION             24.59      4.00       0.0
  J15                  JUNCTION             24.19      4.00       0.0
  J16                  JUNCTION             23.39      4.00       0.0
  J17                  JUNCTION             22.09      4.00       0.0
  J18                  JUNCTION             16.00      4.00       0.0
  J20                  JUNCTION             17.70      4.00       0.0
  J21                  JUNCTION             19.00      4.00       0.0
  J23                  JUNCTION             22.29      4.00       0.0
  J24                  JUNCTION             20.89      4.00       0.0
  J25                  JUNCTION             30.19      4.00       0.0
  J19                  OUTFALL              15.50      3.60       0.0
  
  
  ************
  Link Summary
  ************
  Name             From Node        To Node          Type            Length    %Slope Roughness
  ---------------------------------------------------------------------------------------------
  C0               J0               J2               CONDUIT          214.0    2.3371    0.0110
  C1               J1               J2               CONDUIT          152.0    1.9741    0.0110
  C2               J3               J2               CONDUIT          306.0    1.6342    0.0110
  C3               J4               J3               CONDUIT          128.0    2.3444    0.0110
  C4               J2               J6               CONDUIT          293.0    0.7509    0.0110
  C5               J5               J6               CONDUIT          246.0    2.1143    0.0110
  C6               J25              J11              CONDUIT          289.0    1.5573    0.0110
  C7               J6               J12              CONDUIT          335.0    0.2985    0.0110
  C8               J7               J6               CONDUIT          187.0    2.4606    0.0110
  C9               J8               J9               CONDUIT          119.0    1.0925    0.0110
  C10              J9               J16              CONDUIT          325.0    1.6310    0.0110
  C11              J10              J11              CONDUIT          227.0    0.1322    0.0110
  C12              J12              J18              CONDUIT          401.0    1.6935    0.0110
  C13              J17              J18              CONDUIT          267.0    2.2815    0.0110
  C14              J11              J13              CONDUIT          113.0    0.3540    0.0110
  C16              J13              J17              CONDUIT          409.0    0.7824    0.0110
  C17              J24              J20              CONDUIT          329.0    0.9697    0.0110
  C18              J20              J18              CONDUIT          215.0    0.7907    0.0110
  C19              J16              J21              CONDUIT          437.0    1.0046    0.0110
  C20              J21              J20              CONDUIT          295.0    0.4407    0.0110
  C21              J23              J21              CONDUIT          204.0    1.6130    0.0110
  C23              J18              J19              CONDUIT          161.0    0.3106    0.0110
  C24              J15              J16              CONDUIT          197.0    0.4061    0.0110
  C22              J14              J12              CONDUIT          280.0    0.6429    0.0110
  
  
  *********************
  Cross Section Summary
  *********************
                                        Full     Full     Hyd.     Max.   No. of     Full
  Conduit          Shape               Depth     Area     Rad.    Width  Barrels     Flow
  ---------------------------------------------------------------------------------------
  C0               CIRCULAR             0.70     0.38     0.17     0.70        1     1.67
  C1               CIRCULAR             0.60     0.28     0.15     0.60        1     1.02
  C2               CIRCULAR             0.80     0.50     0.20     0.80        1     2.00
  C3               CIRCULAR             0.60     0.28     0.15     0.60        1     1.11
  C4               CIRCULAR             1.20     1.13     0.30     1.20        1     3.99
  C5               CIRCULAR             0.70     0.38     0.17     0.70        1     1.59
  C6               CIRCULAR             0.80     0.50     0.20     0.80        1     1.95
  C7               CIRCULAR             2.40     4.52     0.60     2.40        1    15.99
  C8               CIRCULAR             0.70     0.38     0.17     0.70        1     1.72
  C9               CIRCULAR             0.70     0.38     0.17     0.70        1     1.14
  C10              CIRCULAR             1.00     0.79     0.25     1.00        1     3.62
  C11              CIRCULAR             1.50     1.77     0.38     1.50        1     3.04
  C12              CIRCULAR             3.00     7.07     0.75     3.00        1    69.04
  C13              CIRCULAR             1.50     1.77     0.38     1.50        1    12.62
  C14              CIRCULAR             1.50     1.77     0.38     1.50        1     4.97
  C16              CIRCULAR             1.35     1.43     0.34     1.35        1     5.58
  C17              CIRCULAR             0.80     0.50     0.20     0.80        1     1.54
  C18              CIRCULAR             3.00     7.07     0.75     3.00        1    47.18
  C19              CIRCULAR             3.00     7.07     0.75     3.00        1    53.18
  C20              CIRCULAR             3.00     7.07     0.75     3.00        1    35.22
  C21              CIRCULAR             1.00     0.79     0.25     1.00        1     3.60
  C23              CIRCULAR             3.60    10.18     0.90     3.60        1    48.08
  C24              CIRCULAR             1.10     0.95     0.28     1.10        1     2.33
  C22              CIRCULAR             1.40     1.54     0.35     1.40        1     5.57
  
  
  
  *********************************************************
  NOTE: The summary statistics displayed in this report are
  based on results found at every computational time step,  
  not just on results from each reporting time step.
  *********************************************************
  
  ****************
  Analysis Options
  ****************
  Flow Units ............... CMS
  Process Models:
    Rainfall/Runoff ........ YES
    RDII ................... NO
    Snowmelt ............... NO
    Groundwater ............ NO
    Flow Routing ........... YES
    Ponding Allowed ........ NO
    Water Quality .......... NO
  Infiltration Method ...... HORTON
  Flow Routing Method ...... DYNWAVE
  Starting Date ............ 07/10/2005 17:10:00
  Ending Date .............. 07/10/2005 22:15:00
  Antecedent Dry Days ...... 0.0
  Report Time Step ......... 00:05:00
  Wet Time Step ............ 00:05:00
  Dry Time Step ............ 01:00:00
  Routing Time Step ........ 30.00 sec
  Variable Time Step ....... YES
  Maximum Trials ........... 8
  Number of Threads ........ 1
  Head Tolerance ........... 0.005000 m
  
  
  **************************        Volume         Depth
  Runoff Quantity Continuity     hectare-m            mm
  **************************     ---------       -------
  Total Precipitation ......         3.520        30.100
  Evaporation Loss .........         0.000         0.000
  Infiltration Loss ........         0.397         3.392
  Surface Runoff ...........         2.063        17.643
  Final Storage ............         1.069         9.144
  Continuity Error (%) .....        -0.263
  
  
  **************************        Volume        Volume
  Flow Routing Continuity        hectare-m      10^6 ltr
  **************************     ---------     ---------
  Dry Weather Inflow .......         0.000         0.000
  Wet Weather Inflow .......         2.056        20.558
  Groundwater Inflow .......         0.000         0.000
  RDII Inflow ..............         0.000         0.000
  External Inflow ..........         0.000         0.000
  External Outflow .........         2.026        20.264
  Flooding Loss ............         0.000         0.000
  Evaporation Loss .........         0.000         0.000
  Exfiltration Loss ........         0.000         0.000
  Initial Stored Volume ....         0.021         0.207
  Final Stored Volume ......         0.043         0.428
  Continuity Error (%) .....         0.356
  
  
  ***************************
  Time-Step Critical Elements
  ***************************
  Link C14 (38.15%)
  
  
  ********************************
  Highest Flow Instability Indexes
  ********************************
  Link C3 (2)
  Link C1 (2)
  Link C4 (2)
  Link C7 (2)
  Link C0 (2)
  
  
  *************************
  Routing Time Step Summary
  *************************
  Minimum Time Step           :     7.84 sec
  Average Time Step           :    28.15 sec
  Maximum Time Step           :    30.00 sec
  Percent in Steady State     :     0.00
  Average Iterations per Step :     2.00
  Percent Not Converging      :     0.00
  
  
  ***************************
  Subcatchment Runoff Summary
  ***************************
  
  --------------------------------------------------------------------------------------------------------
                            Total      Total      Total      Total      Total       Total     Peak  Runoff
                           Precip      Runon       Evap      Infil     Runoff      Runoff   Runoff   Coeff
  Subcatchment                 mm         mm         mm         mm         mm    10^6 ltr      CMS
  --------------------------------------------------------------------------------------------------------
  S1                        30.10       0.00       0.00       1.29      26.55        0.59     0.20   0.882
  S2                        30.10       0.00       0.00       3.24      18.85        1.37     0.33   0.626
  S3                        30.10       0.00       0.00       4.53      19.71        0.30     0.09   0.655
  S4                        30.10       0.00       0.00       5.18      12.14        0.75     0.17   0.403
  S5                        30.10       0.00       0.00       5.18      10.55        0.98     0.22   0.350
  S6                        30.10       0.00       0.00       2.59      21.17        1.48     0.36   0.703
  S7                        30.10       0.00       0.00       3.88      19.25        0.63     0.17   0.640
  S8                        30.10       0.00       0.00       1.94      21.95        2.34     0.50   0.729
  S9                        30.10       0.00       0.00       3.53      15.12        2.48     0.50   0.502
  S10                       30.10       0.00       0.00       3.88      19.83        0.54     0.15   0.659
  S11                       30.10       0.00       0.00       3.88      17.61        1.63     0.41   0.585
  S12                       30.10       0.00       0.00       2.59      19.88        2.10     0.45   0.661
  S13                       30.10       0.00       0.00       2.59      20.74        2.09     0.48   0.689
  S14                       30.10       0.00       0.00       3.88      14.92        1.72     0.38   0.496
  S15                       30.10       0.00       0.00       3.24      18.18        1.62     0.37   0.604
  
  
  ******************
  Node Depth Summary
  ******************
  
  ---------------------------------------------------------------------------------
                                 Average  Maximum  Maximum  Time of Max    Reported
                                   Depth    Depth      HGL   Occurrence   Max Depth
  Node                 Type       Meters   Meters   Meters  days hr:min      Meters
  ---------------------------------------------------------------------------------
  J0                   JUNCTION     0.09     0.21    31.20     0  01:55        0.21
  J1                   JUNCTION     0.06     0.18    29.17     0  01:55        0.17
  J2                   JUNCTION     0.14     0.31    26.30     0  01:58        0.30
  J3                   JUNCTION     0.05     0.11    31.10     0  01:56        0.10
  J4                   JUNCTION     0.05     0.11    34.10     0  01:55        0.11
  J5                   JUNCTION     0.10     0.22    29.21     0  01:55        0.22
  J6                   JUNCTION     0.21     0.44    24.23     0  01:59        0.44
  J7                   JUNCTION     0.08     0.17    28.56     0  01:55        0.16
  J8                   JUNCTION     0.09     0.18    30.17     0  01:55        0.18
  J9                   JUNCTION     0.09     0.20    28.89     0  01:56        0.19
  J10                  JUNCTION     0.16     0.36    26.35     0  01:56        0.35
  J11                  JUNCTION     0.21     0.47    26.16     0  01:58        0.46
  J12                  JUNCTION     0.15     0.31    23.10     0  02:01        0.31
  J13                  JUNCTION     0.18     0.40    25.69     0  01:59        0.40
  J14                  JUNCTION     0.14     0.28    24.87     0  01:56        0.28
  J15                  JUNCTION     0.14     0.31    24.50     0  01:55        0.30
  J16                  JUNCTION     0.11     0.24    23.63     0  01:58        0.23
  J17                  JUNCTION     0.16     0.35    22.44     0  02:00        0.35
  J18                  JUNCTION     0.35     0.75    16.75     0  02:02        0.74
  J20                  JUNCTION     0.17     0.36    18.06     0  02:01        0.36
  J21                  JUNCTION     0.17     0.35    19.35     0  02:01        0.35
  J23                  JUNCTION     0.10     0.22    22.51     0  01:55        0.21
  J24                  JUNCTION     0.14     0.31    21.20     0  01:56        0.30
  J25                  JUNCTION     0.07     0.16    30.35     0  01:55        0.15
  J19                  OUTFALL      0.34     0.75    16.25     0  02:03        0.74
  
  
  *******************
  Node Inflow Summary
  *******************
  
  -------------------------------------------------------------------------------------------------
                                  Maximum  Maximum                  Lateral       Total        Flow
                                  Lateral    Total  Time of Max      Inflow      Inflow     Balance
                                   Inflow   Inflow   Occurrence      Volume      Volume       Error
  Node                 Type           CMS      CMS  days hr:min    10^6 ltr    10^6 ltr     Percent
  -------------------------------------------------------------------------------------------------
  J0                   JUNCTION     0.326    0.326     0  01:55        1.36        1.36      -0.456
  J1                   JUNCTION     0.196    0.196     0  01:55       0.586       0.586      -0.006
  J2                   JUNCTION     0.000    0.599     0  01:55           0        2.25      -0.149
  J3                   JUNCTION     0.000    0.086     0  01:55           0       0.301       0.502
  J4                   JUNCTION     0.087    0.087     0  01:55       0.301       0.301       0.006
  J5                   JUNCTION     0.355    0.355     0  01:55        1.47        1.47       0.127
  J6                   JUNCTION     0.000    1.123     0  01:57           0         4.7       0.284
  J7                   JUNCTION     0.216    0.216     0  01:55       0.973       0.972       0.183
  J8                   JUNCTION     0.167    0.167     0  01:55       0.746       0.746       0.152
  J9                   JUNCTION     0.151    0.316     0  01:55       0.541        1.29       0.336
  J10                  JUNCTION     0.407    0.407     0  01:55        1.63        1.63       0.357
  J11                  JUNCTION     0.496    1.055     0  01:56        2.34        4.59       0.503
  J12                  JUNCTION     0.000    1.610     0  02:00           0        7.15      -0.013
  J13                  JUNCTION     0.000    1.041     0  01:58           0        4.56       0.329
  J14                  JUNCTION     0.499    0.499     0  02:00        2.47        2.47       0.272
  J15                  JUNCTION     0.379    0.379     0  01:55        1.71        1.71       0.219
  J16                  JUNCTION     0.000    0.690     0  01:56           0        2.99       0.662
  J17                  JUNCTION     0.454    1.491     0  01:59         2.1        6.65       0.273
  J18                  JUNCTION     0.000    4.534     0  02:01           0        20.4       0.548
  J20                  JUNCTION     0.000    1.469     0  02:00           0        6.62       0.479
  J21                  JUNCTION     0.000    1.025     0  01:58           0        4.58       0.876
  J23                  JUNCTION     0.370    0.370     0  01:55        1.62        1.61       0.106
  J24                  JUNCTION     0.485    0.485     0  01:55        2.08        2.08       0.170
  J25                  JUNCTION     0.171    0.171     0  01:55        0.63        0.63       0.193
  J19                  OUTFALL      0.000    4.533     0  02:03           0        20.3       0.000
  
  
  **********************
  Node Surcharge Summary
  **********************
  
  No nodes were surcharged.
  
  
  *********************
  Node Flooding Summary
  *********************
  
  No nodes were flooded.
  
  
  ***********************
  Outfall Loading Summary
  ***********************
  
  -----------------------------------------------------------
                         Flow       Avg       Max       Total
                         Freq      Flow      Flow      Volume
  Outfall Node           Pcnt       CMS       CMS    10^6 ltr
  -----------------------------------------------------------
  J19                  100.00     1.210     4.533      20.264
  -----------------------------------------------------------
  System               100.00     1.210     4.533      20.264
  
  
  ********************
  Link Flow Summary
  ********************
  
  -----------------------------------------------------------------------------
                                 Maximum  Time of Max   Maximum    Max/    Max/
                                  |Flow|   Occurrence   |Veloc|    Full    Full
  Link                 Type          CMS  days hr:min     m/sec    Flow   Depth
  -----------------------------------------------------------------------------
  C0                   CONDUIT     0.326     0  01:55      4.43    0.19    0.37
  C1                   CONDUIT     0.195     0  01:55      1.90    0.19    0.40
  C2                   CONDUIT     0.082     0  01:56      0.79    0.04    0.26
  C3                   CONDUIT     0.086     0  01:55      2.39    0.08    0.19
  C4                   CONDUIT     0.573     0  01:58      1.92    0.14    0.31
  C5                   CONDUIT     0.354     0  01:55      2.09    0.22    0.47
  C6                   CONDUIT     0.167     0  01:56      0.94    0.09    0.39
  C7                   CONDUIT     1.111     0  02:00      2.44    0.07    0.16
  C8                   CONDUIT     0.215     0  01:55      1.44    0.13    0.43
  C9                   CONDUIT     0.166     0  01:55      1.99    0.15    0.27
  C10                  CONDUIT     0.309     0  01:56      2.53    0.09    0.21
  C11                  CONDUIT     0.394     0  01:56      1.00    0.13    0.28
  C12                  CONDUIT     1.598     0  02:01      2.59    0.02    0.18
  C13                  CONDUIT     1.488     0  02:00      2.61    0.12    0.36
  C14                  CONDUIT     1.041     0  01:58      2.46    0.21    0.29
  C16                  CONDUIT     1.041     0  02:00      3.20    0.19    0.28
  C17                  CONDUIT     0.481     0  01:56      2.59    0.31    0.41
  C18                  CONDUIT     1.458     0  02:02      1.62    0.03    0.18
  C19                  CONDUIT     0.664     0  01:58      1.92    0.01    0.10
  C20                  CONDUIT     1.002     0  02:01      2.13    0.03    0.12
  C21                  CONDUIT     0.370     0  01:55      2.21    0.10    0.28
  C23                  CONDUIT     4.533     0  02:03      3.66    0.09    0.21
  C24                  CONDUIT     0.381     0  01:56      2.12    0.16    0.25
  C22                  CONDUIT     0.501     0  01:56      2.21    0.09    0.21
  
  
  ***************************
  Flow Classification Summary
  ***************************
  
  -------------------------------------------------------------------------------------
                      Adjusted    ---------- Fraction of Time in Flow Class ---------- 
                       /Actual         Up    Down  Sub   Sup   Up    Down  Norm  Inlet 
  Conduit               Length    Dry  Dry   Dry   Crit  Crit  Crit  Crit  Ltd   Ctrl  
  -------------------------------------------------------------------------------------
  C0                      1.00   0.00  0.00  0.00  0.06  0.94  0.00  0.00  1.00  0.00
  C1                      1.00   0.00  0.02  0.00  0.58  0.40  0.00  0.00  0.98  0.00
  C2                      1.00   0.00  0.02  0.00  0.98  0.00  0.00  0.00  0.98  0.00
  C3                      1.00   0.02  0.00  0.00  0.01  0.97  0.00  0.00  0.79  0.00
  C4                      1.00   0.00  0.00  0.00  0.51  0.49  0.00  0.00  1.00  0.00
  C5                      1.00   0.00  0.02  0.00  0.25  0.73  0.00  0.00  0.98  0.00
  C6                      1.00   0.02  0.00  0.00  0.94  0.04  0.00  0.00  0.98  0.00
  C7                      1.00   0.00  0.00  0.00  0.00  1.00  0.00  0.00  0.00  0.00
  C8                      1.00   0.00  0.02  0.00  0.71  0.26  0.00  0.00  0.98  0.00
  C9                      1.00   0.02  0.00  0.00  0.03  0.96  0.00  0.00  0.77  0.00
  C10                     1.00   0.02  0.00  0.00  0.01  0.97  0.00  0.00  0.88  0.00
  C11                     1.00   0.02  0.00  0.00  0.98  0.00  0.00  0.00  0.89  0.00
  C12                     1.00   0.00  0.00  0.00  0.90  0.10  0.00  0.00  1.00  0.00
  C13                     1.00   0.00  0.02  0.00  0.08  0.89  0.00  0.00  0.98  0.00
  C14                     1.00   0.02  0.00  0.00  0.05  0.93  0.00  0.00  0.16  0.00
  C16                     1.00   0.02  0.00  0.00  0.07  0.91  0.00  0.00  0.06  0.00
  C17                     1.00   0.02  0.00  0.00  0.02  0.96  0.00  0.00  0.84  0.00
  C18                     1.00   0.00  0.02  0.00  0.98  0.00  0.00  0.00  0.98  0.00
  C19                     1.00   0.02  0.00  0.00  0.06  0.92  0.00  0.00  0.98  0.00
  C20                     1.00   0.02  0.00  0.00  0.08  0.90  0.00  0.00  0.72  0.00
  C21                     1.00   0.02  0.00  0.00  0.02  0.96  0.00  0.00  0.91  0.00
  C23                     1.00   0.00  0.00  0.00  0.00  1.00  0.00  0.00  0.38  0.00
  C24                     1.00   0.02  0.00  0.00  0.04  0.94  0.00  0.00  0.00  0.00
  C22                     1.00   0.00  0.02  0.00  0.06  0.92  0.00  0.00  0.85  0.00
  
  
  *************************
  Conduit Surcharge Summary
  *************************
  
  No conduits were surcharged.
  
  
  ********************
  Subcatchment Results
  ********************
  
  <<< Subcatchment S1 >>>
  ---------------------------------------------------
  Date        Time        Precip.    Losses    Runoff
                            mm/hr     mm/hr       CMS
  ---------------------------------------------------
   07/10/2005 17:15:00      1.200     0.112    0.0000
   07/10/2005 17:20:00      3.600     0.328    0.0000
   07/10/2005 17:25:00      7.200     0.609    0.0003
   07/10/2005 17:30:00     10.800     0.782    0.0013
   07/10/2005 17:35:00      6.000     0.340    0.0044
   07/10/2005 17:40:00      3.600     0.180    0.0077
   07/10/2005 17:45:00      2.400     0.111    0.0092
   07/10/2005 17:50:00      3.600     0.159    0.0095
   07/10/2005 17:55:00      3.600     0.147    0.0109
   07/10/2005 18:00:00      3.600     0.144    0.0122
   07/10/2005 18:05:00      8.400     0.336    0.0133
   07/10/2005 18:10:00     21.600     0.864    0.0195
   07/10/2005 18:15:00     12.000     0.480    0.0440
   07/10/2005 18:20:00     24.000     0.960    0.0494
   07/10/2005 18:25:00     24.000     0.960    0.0752
   07/10/2005 18:30:00      7.200     0.288    0.0946
   07/10/2005 18:35:00     18.000     0.720    0.0743
   07/10/2005 18:40:00      4.800     0.192    0.0828
   07/10/2005 18:45:00     10.800     0.432    0.0637
   07/10/2005 18:50:00     25.200     1.008    0.0628
   07/10/2005 18:55:00     28.800     1.152    0.0897
   07/10/2005 19:00:00     54.000     2.160    0.1168
   07/10/2005 19:05:00     21.600     0.864    0.1962
   07/10/2005 19:10:00     10.800     0.432    0.1635
   07/10/2005 19:15:00      2.400     0.096    0.1226
   07/10/2005 19:20:00      1.200     0.048    0.0840
   07/10/2005 19:25:00      0.000     0.000    0.0602
   07/10/2005 19:30:00      0.000     0.000    0.0439
   07/10/2005 19:35:00      1.200     0.048    0.0334
   07/10/2005 19:40:00      0.000     0.000    0.0278
   07/10/2005 19:45:00      0.000     0.000    0.0222
   07/10/2005 19:50:00      0.000     0.000    0.0182
   07/10/2005 19:55:00      1.200     0.048    0.0151
   07/10/2005 20:00:00      8.400     0.336    0.0140
   07/10/2005 20:05:00      7.200     0.288    0.0208
   07/10/2005 20:10:00      2.400     0.096    0.0256
   07/10/2005 20:15:00      1.200     0.048    0.0233
   07/10/2005 20:20:00      2.400     0.096    0.0201
   07/10/2005 20:25:00      3.600     0.144    0.0191
   07/10/2005 20:30:00      3.600     0.144    0.0196
   07/10/2005 20:35:00      2.400     0.096    0.0201
   07/10/2005 20:40:00      1.200     0.048    0.0190
   07/10/2005 20:45:00      1.200     0.048    0.0168
   07/10/2005 20:50:00      0.000     0.000    0.0151
   07/10/2005 20:55:00      1.200     0.048    0.0125
   07/10/2005 21:00:00      1.200     0.048    0.0117
   07/10/2005 21:05:00      1.200     0.048    0.0111
   07/10/2005 21:10:00      1.200     0.048    0.0105
   07/10/2005 21:15:00      0.000     0.000    0.0100
   07/10/2005 21:20:00      0.000     0.000    0.0086
   07/10/2005 21:25:00      0.000     0.000    0.0074
   07/10/2005 21:30:00      0.000     0.000    0.0065
   07/10/2005 21:35:00      0.000     0.000    0.0057
   07/10/2005 21:40:00      0.000     0.000    0.0051
   07/10/2005 21:45:00      0.000     0.000    0.0045
   07/10/2005 21:50:00      0.000     0.000    0.0041
   07/10/2005 21:55:00      0.000     0.000    0.0037
   07/10/2005 22:00:00      0.000     0.000    0.0033
   07/10/2005 22:05:00      0.000     0.000    0.0030
   07/10/2005 22:10:00      0.000     0.000    0.0028
  
  
  <<< Subcatchment S2 >>>
  ---------------------------------------------------
  Date        Time        Precip.    Losses    Runoff
                            mm/hr     mm/hr       CMS
  ---------------------------------------------------
   07/10/2005 17:15:00      1.200     0.280    0.0000
   07/10/2005 17:20:00      3.600     0.820    0.0000
   07/10/2005 17:25:00      7.200     1.522    0.0000
   07/10/2005 17:30:00     10.800     1.954    0.0014
   07/10/2005 17:35:00      6.000     0.851    0.0048
   07/10/2005 17:40:00      3.600     0.449    0.0087
   07/10/2005 17:45:00      2.400     0.278    0.0111
   07/10/2005 17:50:00      3.600     0.397    0.0122
   07/10/2005 17:55:00      3.600     0.368    0.0147
   07/10/2005 18:00:00      3.600     0.360    0.0170
   07/10/2005 18:05:00      8.400     0.840    0.0193
   07/10/2005 18:10:00     21.600     2.160    0.0279
   07/10/2005 18:15:00     12.000     1.200    0.0595
   07/10/2005 18:20:00     24.000     2.400    0.0720
   07/10/2005 18:25:00     24.000     2.400    0.1106
   07/10/2005 18:30:00      7.200     0.720    0.1456
   07/10/2005 18:35:00     18.000     1.800    0.1297
   07/10/2005 18:40:00      4.800     0.480    0.1462
   07/10/2005 18:45:00     10.800     1.080    0.1250
   07/10/2005 18:50:00     25.200     2.520    0.1247
   07/10/2005 18:55:00     28.800     2.880    0.1632
   07/10/2005 19:00:00     54.000     5.400    0.2063
   07/10/2005 19:05:00     21.600     2.160    0.3261
   07/10/2005 19:10:00     10.800     1.080    0.3057
   07/10/2005 19:15:00      2.400     0.240    0.2581
   07/10/2005 19:20:00      1.200     0.120    0.2022
   07/10/2005 19:25:00      0.000     0.000    0.1621
   07/10/2005 19:30:00      0.000     0.000    0.1315
   07/10/2005 19:35:00      1.200     0.120    0.1097
   07/10/2005 19:40:00      0.000     0.000    0.0963
   07/10/2005 19:45:00      0.000     0.000    0.0836
   07/10/2005 19:50:00      0.000     0.000    0.0737
   07/10/2005 19:55:00      1.200     0.120    0.0659
   07/10/2005 20:00:00      8.400     0.840    0.0616
   07/10/2005 20:05:00      7.200     0.720    0.0709
   07/10/2005 20:10:00      2.400     0.240    0.0770
   07/10/2005 20:15:00      1.200     0.120    0.0730
   07/10/2005 20:20:00      2.400     0.240    0.0675
   07/10/2005 20:25:00      3.600     0.360    0.0652
   07/10/2005 20:30:00      3.600     0.360    0.0653
   07/10/2005 20:35:00      2.400     0.240    0.0654
   07/10/2005 20:40:00      1.200     0.120    0.0633
   07/10/2005 20:45:00      1.200     0.120    0.0595
   07/10/2005 20:50:00      0.000     0.000    0.0563
   07/10/2005 20:55:00      1.200     0.120    0.0516
   07/10/2005 21:00:00      1.200     0.120    0.0495
   07/10/2005 21:05:00      1.200     0.120    0.0477
   07/10/2005 21:10:00      1.200     0.120    0.0461
   07/10/2005 21:15:00      0.000     0.000    0.0446
   07/10/2005 21:20:00      0.000     0.000    0.0417
   07/10/2005 21:25:00      0.000     0.000    0.0391
   07/10/2005 21:30:00      0.000     0.000    0.0368
   07/10/2005 21:35:00      0.000     0.000    0.0348
   07/10/2005 21:40:00      0.000     0.000    0.0330
   07/10/2005 21:45:00      0.000     0.000    0.0314
   07/10/2005 21:50:00      0.000     0.000    0.0299
   07/10/2005 21:55:00      0.000     0.000    0.0286
   07/10/2005 22:00:00      0.000     0.000    0.0274
   07/10/2005 22:05:00      0.000     0.000    0.0263
   07/10/2005 22:10:00      0.000     0.000    0.0253
  
  
  <<< Subcatchment S3 >>>
  ---------------------------------------------------
  Date        Time        Precip.    Losses    Runoff
                            mm/hr     mm/hr       CMS
  ---------------------------------------------------
   07/10/2005 17:15:00      1.200     0.392    0.0000
   07/10/2005 17:20:00      3.600     1.148    0.0000
   07/10/2005 17:25:00      7.200     2.130    0.0003
   07/10/2005 17:30:00     10.800     2.735    0.0010
   07/10/2005 17:35:00      6.000     1.191    0.0031
   07/10/2005 17:40:00      3.600     0.629    0.0046
   07/10/2005 17:45:00      2.400     0.389    0.0045
   07/10/2005 17:50:00      3.600     0.556    0.0039
   07/10/2005 17:55:00      3.600     0.516    0.0042
   07/10/2005 18:00:00      3.600     0.504    0.0044
   07/10/2005 18:05:00      8.400     1.176    0.0045
   07/10/2005 18:10:00     21.600     3.024    0.0075
   07/10/2005 18:15:00     12.000     1.680    0.0198
   07/10/2005 18:20:00     24.000     3.360    0.0178
   07/10/2005 18:25:00     24.000     3.360    0.0287
   07/10/2005 18:30:00      7.200     1.008    0.0343
   07/10/2005 18:35:00     18.000     2.520    0.0217
   07/10/2005 18:40:00      4.800     0.672    0.0281
   07/10/2005 18:45:00     10.800     1.512    0.0196
   07/10/2005 18:50:00     25.200     3.528    0.0218
   07/10/2005 18:55:00     28.800     4.032    0.0376
   07/10/2005 19:00:00     54.000     7.560    0.0497
   07/10/2005 19:05:00     21.600     3.024    0.0868
   07/10/2005 19:10:00     10.800     1.512    0.0634
   07/10/2005 19:15:00      2.400     0.336    0.0483
   07/10/2005 19:20:00      1.200     0.168    0.0358
   07/10/2005 19:25:00      0.000     0.000    0.0294
   07/10/2005 19:30:00      0.000     0.000    0.0249
   07/10/2005 19:35:00      1.200     0.168    0.0219
   07/10/2005 19:40:00      0.000     0.000    0.0204
   07/10/2005 19:45:00      0.000     0.000    0.0183
   07/10/2005 19:50:00      0.000     0.000    0.0167
   07/10/2005 19:55:00      1.200     0.168    0.0153
   07/10/2005 20:00:00      8.400     1.176    0.0146
   07/10/2005 20:05:00      7.200     1.008    0.0187
   07/10/2005 20:10:00      2.400     0.336    0.0211
   07/10/2005 20:15:00      1.200     0.168    0.0188
   07/10/2005 20:20:00      2.400     0.336    0.0165
   07/10/2005 20:25:00      3.600     0.504    0.0158
   07/10/2005 20:30:00      3.600     0.504    0.0161
   07/10/2005 20:35:00      2.400     0.336    0.0162
   07/10/2005 20:40:00      1.200     0.168    0.0153
   07/10/2005 20:45:00      1.200     0.168    0.0138
   07/10/2005 20:50:00      0.000     0.000    0.0128
   07/10/2005 20:55:00      1.200     0.168    0.0114
   07/10/2005 21:00:00      1.200     0.168    0.0109
   07/10/2005 21:05:00      1.200     0.168    0.0105
   07/10/2005 21:10:00      1.200     0.168    0.0102
   07/10/2005 21:15:00      0.000     0.000    0.0098
   07/10/2005 21:20:00      0.000     0.000    0.0089
   07/10/2005 21:25:00      0.000     0.000    0.0082
   07/10/2005 21:30:00      0.000     0.000    0.0076
   07/10/2005 21:35:00      0.000     0.000    0.0071
   07/10/2005 21:40:00      0.000     0.000    0.0066
   07/10/2005 21:45:00      0.000     0.000    0.0062
   07/10/2005 21:50:00      0.000     0.000    0.0059
   07/10/2005 21:55:00      0.000     0.000    0.0055
   07/10/2005 22:00:00      0.000     0.000    0.0053
   07/10/2005 22:05:00      0.000     0.000    0.0050
   07/10/2005 22:10:00      0.000     0.000    0.0047
  
  
  <<< Subcatchment S4 >>>
  ---------------------------------------------------
  Date        Time        Precip.    Losses    Runoff
                            mm/hr     mm/hr       CMS
  ---------------------------------------------------
   07/10/2005 17:15:00      1.200     0.448    0.0000
   07/10/2005 17:20:00      3.600     1.312    0.0000
   07/10/2005 17:25:00      7.200     2.435    0.0000
   07/10/2005 17:30:00     10.800     3.126    0.0013
   07/10/2005 17:35:00      6.000     1.362    0.0041
   07/10/2005 17:40:00      3.600     0.719    0.0070
   07/10/2005 17:45:00      2.400     0.445    0.0080
   07/10/2005 17:50:00      3.600     0.635    0.0079
   07/10/2005 17:55:00      3.600     0.589    0.0089
   07/10/2005 18:00:00      3.600     0.576    0.0098
   07/10/2005 18:05:00      8.400     1.344    0.0104
   07/10/2005 18:10:00     21.600     3.456    0.0156
   07/10/2005 18:15:00     12.000     1.920    0.0365
   07/10/2005 18:20:00     24.000     3.840    0.0391
   07/10/2005 18:25:00     24.000     3.840    0.0598
   07/10/2005 18:30:00      7.200     1.152    0.0741
   07/10/2005 18:35:00     18.000     2.880    0.0551
   07/10/2005 18:40:00      4.800     0.768    0.0631
   07/10/2005 18:45:00     10.800     1.728    0.0477
   07/10/2005 18:50:00     25.200     4.032    0.0486
   07/10/2005 18:55:00     28.800     4.608    0.0735
   07/10/2005 19:00:00     54.000     8.640    0.0978
   07/10/2005 19:05:00     21.600     3.456    0.1672
   07/10/2005 19:10:00     10.800     1.728    0.1382
   07/10/2005 19:15:00      2.400     0.384    0.1077
   07/10/2005 19:20:00      1.200     0.192    0.0803
   07/10/2005 19:25:00      0.000     0.000    0.0650
   07/10/2005 19:30:00      0.000     0.000    0.0548
   07/10/2005 19:35:00      1.200     0.192    0.0485
   07/10/2005 19:40:00      0.000     0.000    0.0456
   07/10/2005 19:45:00      0.000     0.000    0.0421
   07/10/2005 19:50:00      0.000     0.000    0.0396
   07/10/2005 19:55:00      1.200     0.192    0.0376
   07/10/2005 20:00:00      8.400     1.344    0.0370
   07/10/2005 20:05:00      7.200     1.152    0.0439
   07/10/2005 20:10:00      2.400     0.384    0.0489
   07/10/2005 20:15:00      1.200     0.192    0.0470
   07/10/2005 20:20:00      2.400     0.384    0.0443
   07/10/2005 20:25:00      3.600     0.576    0.0436
   07/10/2005 20:30:00      3.600     0.576    0.0444
   07/10/2005 20:35:00      2.400     0.384    0.0450
   07/10/2005 20:40:00      1.200     0.192    0.0441
   07/10/2005 20:45:00      1.200     0.192    0.0421
   07/10/2005 20:50:00      0.000     0.000    0.0406
   07/10/2005 20:55:00      1.200     0.192    0.0381
   07/10/2005 21:00:00      1.200     0.192    0.0373
   07/10/2005 21:05:00      1.200     0.192    0.0366
   07/10/2005 21:10:00      1.200     0.192    0.0360
   07/10/2005 21:15:00      0.000     0.000    0.0354
   07/10/2005 21:20:00      0.000     0.000    0.0339
   07/10/2005 21:25:00      0.000     0.000    0.0325
   07/10/2005 21:30:00      0.000     0.000    0.0314
   07/10/2005 21:35:00      0.000     0.000    0.0303
   07/10/2005 21:40:00      0.000     0.000    0.0294
   07/10/2005 21:45:00      0.000     0.000    0.0286
   07/10/2005 21:50:00      0.000     0.000    0.0278
   07/10/2005 21:55:00      0.000     0.000    0.0271
   07/10/2005 22:00:00      0.000     0.000    0.0264
   07/10/2005 22:05:00      0.000     0.000    0.0258
   07/10/2005 22:10:00      0.000     0.000    0.0252
  
  
  <<< Subcatchment S5 >>>
  ---------------------------------------------------
  Date        Time        Precip.    Losses    Runoff
                            mm/hr     mm/hr       CMS
  ---------------------------------------------------
   07/10/2005 17:15:00      1.200     0.448    0.0000
   07/10/2005 17:20:00      3.600     1.312    0.0000
   07/10/2005 17:25:00      7.200     2.435    0.0000
   07/10/2005 17:30:00     10.800     3.126    0.0013
   07/10/2005 17:35:00      6.000     1.362    0.0044
   07/10/2005 17:40:00      3.600     0.719    0.0078
   07/10/2005 17:45:00      2.400     0.445    0.0093
   07/10/2005 17:50:00      3.600     0.635    0.0097
   07/10/2005 17:55:00      3.600     0.589    0.0112
   07/10/2005 18:00:00      3.600     0.576    0.0126
   07/10/2005 18:05:00      8.400     1.344    0.0137
   07/10/2005 18:10:00     21.600     3.456    0.0201
   07/10/2005 18:15:00     12.000     1.920    0.0450
   07/10/2005 18:20:00     24.000     3.840    0.0509
   07/10/2005 18:25:00     24.000     3.840    0.0777
   07/10/2005 18:30:00      7.200     1.152    0.0984
   07/10/2005 18:35:00     18.000     2.880    0.0787
   07/10/2005 18:40:00      4.800     0.768    0.0884
   07/10/2005 18:45:00     10.800     1.728    0.0698
   07/10/2005 18:50:00     25.200     4.032    0.0697
   07/10/2005 18:55:00     28.800     4.608    0.0990
   07/10/2005 19:00:00     54.000     8.640    0.1294
   07/10/2005 19:05:00     21.600     3.456    0.2159
   07/10/2005 19:10:00     10.800     1.728    0.1879
   07/10/2005 19:15:00      2.400     0.384    0.1500
   07/10/2005 19:20:00      1.200     0.192    0.1128
   07/10/2005 19:25:00      0.000     0.000    0.0900
   07/10/2005 19:30:00      0.000     0.000    0.0742
   07/10/2005 19:35:00      1.200     0.192    0.0641
   07/10/2005 19:40:00      0.000     0.000    0.0589
   07/10/2005 19:45:00      0.000     0.000    0.0535
   07/10/2005 19:50:00      0.000     0.000    0.0495
   07/10/2005 19:55:00      1.200     0.192    0.0465
   07/10/2005 20:00:00      8.400     1.344    0.0454
   07/10/2005 20:05:00      7.200     1.152    0.0536
   07/10/2005 20:10:00      2.400     0.384    0.0596
   07/10/2005 20:15:00      1.200     0.192    0.0576
   07/10/2005 20:20:00      2.400     0.384    0.0545
   07/10/2005 20:25:00      3.600     0.576    0.0537
   07/10/2005 20:30:00      3.600     0.576    0.0547
   07/10/2005 20:35:00      2.400     0.384    0.0555
   07/10/2005 20:40:00      1.200     0.192    0.0546
   07/10/2005 20:45:00      1.200     0.192    0.0523
   07/10/2005 20:50:00      0.000     0.000    0.0506
   07/10/2005 20:55:00      1.200     0.192    0.0477
   07/10/2005 21:00:00      1.200     0.192    0.0467
   07/10/2005 21:05:00      1.200     0.192    0.0459
   07/10/2005 21:10:00      1.200     0.192    0.0452
   07/10/2005 21:15:00      0.000     0.000    0.0446
   07/10/2005 21:20:00      0.000     0.000    0.0427
   07/10/2005 21:25:00      0.000     0.000    0.0412
   07/10/2005 21:30:00      0.000     0.000    0.0398
   07/10/2005 21:35:00      0.000     0.000    0.0386
   07/10/2005 21:40:00      0.000     0.000    0.0375
   07/10/2005 21:45:00      0.000     0.000    0.0366
   07/10/2005 21:50:00      0.000     0.000    0.0357
   07/10/2005 21:55:00      0.000     0.000    0.0349
   07/10/2005 22:00:00      0.000     0.000    0.0342
   07/10/2005 22:05:00      0.000     0.000    0.0335
   07/10/2005 22:10:00      0.000     0.000    0.0328
  
  
  <<< Subcatchment S6 >>>
  ---------------------------------------------------
  Date        Time        Precip.    Losses    Runoff
                            mm/hr     mm/hr       CMS
  ---------------------------------------------------
   07/10/2005 17:15:00      1.200     0.224    0.0000
   07/10/2005 17:20:00      3.600     0.656    0.0000
   07/10/2005 17:25:00      7.200     1.217    0.0000
   07/10/2005 17:30:00     10.800     1.563    0.0014
   07/10/2005 17:35:00      6.000     0.681    0.0049
   07/10/2005 17:40:00      3.600     0.359    0.0089
   07/10/2005 17:45:00      2.400     0.222    0.0114
   07/10/2005 17:50:00      3.600     0.318    0.0127
   07/10/2005 17:55:00      3.600     0.295    0.0153
   07/10/2005 18:00:00      3.600     0.288    0.0179
   07/10/2005 18:05:00      8.400     0.672    0.0204
   07/10/2005 18:10:00     21.600     1.728    0.0294
   07/10/2005 18:15:00     12.000     0.960    0.0624
   07/10/2005 18:20:00     24.000     1.920    0.0764
   07/10/2005 18:25:00     24.000     1.920    0.1177
   07/10/2005 18:30:00      7.200     0.576    0.1561
   07/10/2005 18:35:00     18.000     1.440    0.1418
   07/10/2005 18:40:00      4.800     0.384    0.1607
   07/10/2005 18:45:00     10.800     0.864    0.1396
   07/10/2005 18:50:00     25.200     2.016    0.1399
   07/10/2005 18:55:00     28.800     2.304    0.1810
   07/10/2005 19:00:00     54.000     4.320    0.2275
   07/10/2005 19:05:00     21.600     1.728    0.3554
   07/10/2005 19:10:00     10.800     0.864    0.3377
   07/10/2005 19:15:00      2.400     0.192    0.2889
   07/10/2005 19:20:00      1.200     0.096    0.2292
   07/10/2005 19:25:00      0.000     0.000    0.1849
   07/10/2005 19:30:00      0.000     0.000    0.1504
   07/10/2005 19:35:00      1.200     0.096    0.1254
   07/10/2005 19:40:00      0.000     0.000    0.1094
   07/10/2005 19:45:00      0.000     0.000    0.0943
   07/10/2005 19:50:00      0.000     0.000    0.0825
   07/10/2005 19:55:00      1.200     0.096    0.0731
   07/10/2005 20:00:00      8.400     0.672    0.0676
   07/10/2005 20:05:00      7.200     0.576    0.0770
   07/10/2005 20:10:00      2.400     0.192    0.0829
   07/10/2005 20:15:00      1.200     0.096    0.0782
   07/10/2005 20:20:00      2.400     0.192    0.0718
   07/10/2005 20:25:00      3.600     0.288    0.0689
   07/10/2005 20:30:00      3.600     0.288    0.0686
   07/10/2005 20:35:00      2.400     0.192    0.0684
   07/10/2005 20:40:00      1.200     0.096    0.0659
   07/10/2005 20:45:00      1.200     0.096    0.0616
   07/10/2005 20:50:00      0.000     0.000    0.0579
   07/10/2005 20:55:00      1.200     0.096    0.0527
   07/10/2005 21:00:00      1.200     0.096    0.0502
   07/10/2005 21:05:00      1.200     0.096    0.0481
   07/10/2005 21:10:00      1.200     0.096    0.0462
   07/10/2005 21:15:00      0.000     0.000    0.0445
   07/10/2005 21:20:00      0.000     0.000    0.0412
   07/10/2005 21:25:00      0.000     0.000    0.0383
   07/10/2005 21:30:00      0.000     0.000    0.0357
   07/10/2005 21:35:00      0.000     0.000    0.0335
   07/10/2005 21:40:00      0.000     0.000    0.0315
   07/10/2005 21:45:00      0.000     0.000    0.0297
   07/10/2005 21:50:00      0.000     0.000    0.0281
   07/10/2005 21:55:00      0.000     0.000    0.0266
   07/10/2005 22:00:00      0.000     0.000    0.0253
   07/10/2005 22:05:00      0.000     0.000    0.0241
   07/10/2005 22:10:00      0.000     0.000    0.0230
  
  
  <<< Subcatchment S7 >>>
  ---------------------------------------------------
  Date        Time        Precip.    Losses    Runoff
                            mm/hr     mm/hr       CMS
  ---------------------------------------------------
   07/10/2005 17:15:00      1.200     0.336    0.0000
   07/10/2005 17:20:00      3.600     0.984    0.0000
   07/10/2005 17:25:00      7.200     1.826    0.0003
   07/10/2005 17:30:00     10.800     2.345    0.0013
   07/10/2005 17:35:00      6.000     1.021    0.0042
   07/10/2005 17:40:00      3.600     0.539    0.0071
   07/10/2005 17:45:00      2.400     0.334    0.0082
   07/10/2005 17:50:00      3.600     0.476    0.0082
   07/10/2005 17:55:00      3.600     0.442    0.0093
   07/10/2005 18:00:00      3.600     0.432    0.0102
   07/10/2005 18:05:00      8.400     1.008    0.0109
   07/10/2005 18:10:00     21.600     2.592    0.0162
   07/10/2005 18:15:00     12.000     1.440    0.0377
   07/10/2005 18:20:00     24.000     2.880    0.0408
   07/10/2005 18:25:00     24.000     2.880    0.0623
   07/10/2005 18:30:00      7.200     0.864    0.0773
   07/10/2005 18:35:00     18.000     2.160    0.0580
   07/10/2005 18:40:00      4.800     0.576    0.0660
   07/10/2005 18:45:00     10.800     1.296    0.0499
   07/10/2005 18:50:00     25.200     3.024    0.0504
   07/10/2005 18:55:00     28.800     3.456    0.0755
   07/10/2005 19:00:00     54.000     6.480    0.1001
   07/10/2005 19:05:00     21.600     2.592    0.1708
   07/10/2005 19:10:00     10.800     1.296    0.1406
   07/10/2005 19:15:00      2.400     0.288    0.1078
   07/10/2005 19:20:00      1.200     0.144    0.0780
   07/10/2005 19:25:00      0.000     0.000    0.0608
   07/10/2005 19:30:00      0.000     0.000    0.0492
   07/10/2005 19:35:00      1.200     0.144    0.0417
   07/10/2005 19:40:00      0.000     0.000    0.0379
   07/10/2005 19:45:00      0.000     0.000    0.0337
   07/10/2005 19:50:00      0.000     0.000    0.0305
   07/10/2005 19:55:00      1.200     0.144    0.0280
   07/10/2005 20:00:00      8.400     1.008    0.0269
   07/10/2005 20:05:00      7.200     0.864    0.0334
   07/10/2005 20:10:00      2.400     0.288    0.0379
   07/10/2005 20:15:00      1.200     0.144    0.0356
   07/10/2005 20:20:00      2.400     0.288    0.0325
   07/10/2005 20:25:00      3.600     0.432    0.0314
   07/10/2005 20:30:00      3.600     0.432    0.0318
   07/10/2005 20:35:00      2.400     0.288    0.0321
   07/10/2005 20:40:00      1.200     0.144    0.0309
   07/10/2005 20:45:00      1.200     0.144    0.0287
   07/10/2005 20:50:00      0.000     0.000    0.0269
   07/10/2005 20:55:00      1.200     0.144    0.0243
   07/10/2005 21:00:00      1.200     0.144    0.0233
   07/10/2005 21:05:00      1.200     0.144    0.0225
   07/10/2005 21:10:00      1.200     0.144    0.0217
   07/10/2005 21:15:00      0.000     0.000    0.0211
   07/10/2005 21:20:00      0.000     0.000    0.0195
   07/10/2005 21:25:00      0.000     0.000    0.0181
   07/10/2005 21:30:00      0.000     0.000    0.0169
   07/10/2005 21:35:00      0.000     0.000    0.0160
   07/10/2005 21:40:00      0.000     0.000    0.0151
   07/10/2005 21:45:00      0.000     0.000    0.0143
   07/10/2005 21:50:00      0.000     0.000    0.0136
   07/10/2005 21:55:00      0.000     0.000    0.0129
   07/10/2005 22:00:00      0.000     0.000    0.0124
   07/10/2005 22:05:00      0.000     0.000    0.0118
   07/10/2005 22:10:00      0.000     0.000    0.0113
  
  
  <<< Subcatchment S8 >>>
  ---------------------------------------------------
  Date        Time        Precip.    Losses    Runoff
                            mm/hr     mm/hr       CMS
  ---------------------------------------------------
   07/10/2005 17:15:00      1.200     0.168    0.0000
   07/10/2005 17:20:00      3.600     0.492    0.0000
   07/10/2005 17:25:00      7.200     0.913    0.0000
   07/10/2005 17:30:00     10.800     1.172    0.0015
   07/10/2005 17:35:00      6.000     0.511    0.0050
   07/10/2005 17:40:00      3.600     0.270    0.0094
   07/10/2005 17:45:00      2.400     0.167    0.0123
   07/10/2005 17:50:00      3.600     0.238    0.0141
   07/10/2005 17:55:00      3.600     0.221    0.0174
   07/10/2005 18:00:00      3.600     0.216    0.0208
   07/10/2005 18:05:00      8.400     0.504    0.0242
   07/10/2005 18:10:00     21.600     1.296    0.0350
   07/10/2005 18:15:00     12.000     0.720    0.0728
   07/10/2005 18:20:00     24.000     1.440    0.0924
   07/10/2005 18:25:00     24.000     1.440    0.1440
   07/10/2005 18:30:00      7.200     0.432    0.1965
   07/10/2005 18:35:00     18.000     1.080    0.1912
   07/10/2005 18:40:00      4.800     0.288    0.2218
   07/10/2005 18:45:00     10.800     0.648    0.2050
   07/10/2005 18:50:00     25.200     1.512    0.2107
   07/10/2005 18:55:00     28.800     1.728    0.2654
   07/10/2005 19:00:00     54.000     3.240    0.3294
   07/10/2005 19:05:00     21.600     1.296    0.4956
   07/10/2005 19:10:00     10.800     0.648    0.4964
   07/10/2005 19:15:00      2.400     0.144    0.4505
   07/10/2005 19:20:00      1.200     0.072    0.3808
   07/10/2005 19:25:00      0.000     0.000    0.3230
   07/10/2005 19:30:00      0.000     0.000    0.2739
   07/10/2005 19:35:00      1.200     0.072    0.2352
   07/10/2005 19:40:00      0.000     0.000    0.2082
   07/10/2005 19:45:00      0.000     0.000    0.1825
   07/10/2005 19:50:00      0.000     0.000    0.1613
   07/10/2005 19:55:00      1.200     0.072    0.1438
   07/10/2005 20:00:00      8.400     0.504    0.1323
   07/10/2005 20:05:00      7.200     0.432    0.1417
   07/10/2005 20:10:00      2.400     0.144    0.1469
   07/10/2005 20:15:00      1.200     0.072    0.1383
   07/10/2005 20:20:00      2.400     0.144    0.1277
   07/10/2005 20:25:00      3.600     0.216    0.1217
   07/10/2005 20:30:00      3.600     0.216    0.1195
   07/10/2005 20:35:00      2.400     0.144    0.1175
   07/10/2005 20:40:00      1.200     0.072    0.1128
   07/10/2005 20:45:00      1.200     0.072    0.1057
   07/10/2005 20:50:00      0.000     0.000    0.0995
   07/10/2005 20:55:00      1.200     0.072    0.0913
   07/10/2005 21:00:00      1.200     0.072    0.0867
   07/10/2005 21:05:00      1.200     0.072    0.0827
   07/10/2005 21:10:00      1.200     0.072    0.0791
   07/10/2005 21:15:00      0.000     0.000    0.0759
   07/10/2005 21:20:00      0.000     0.000    0.0705
   07/10/2005 21:25:00      0.000     0.000    0.0657
   07/10/2005 21:30:00      0.000     0.000    0.0615
   07/10/2005 21:35:00      0.000     0.000    0.0576
   07/10/2005 21:40:00      0.000     0.000    0.0542
   07/10/2005 21:45:00      0.000     0.000    0.0510
   07/10/2005 21:50:00      0.000     0.000    0.0482
   07/10/2005 21:55:00      0.000     0.000    0.0456
   07/10/2005 22:00:00      0.000     0.000    0.0432
   07/10/2005 22:05:00      0.000     0.000    0.0410
   07/10/2005 22:10:00      0.000     0.000    0.0390
  
  
  <<< Subcatchment S9 >>>
  ---------------------------------------------------
  Date        Time        Precip.    Losses    Runoff
                            mm/hr     mm/hr       CMS
  ---------------------------------------------------
   07/10/2005 17:15:00      1.200     0.305    0.0000
   07/10/2005 17:20:00      3.600     0.894    0.0000
   07/10/2005 17:25:00      7.200     1.659    0.0000
   07/10/2005 17:30:00     10.800     2.130    0.0015
   07/10/2005 17:35:00      6.000     0.928    0.0050
   07/10/2005 17:40:00      3.600     0.490    0.0094
   07/10/2005 17:45:00      2.400     0.303    0.0123
   07/10/2005 17:50:00      3.600     0.433    0.0141
   07/10/2005 17:55:00      3.600     0.402    0.0174
   07/10/2005 18:00:00      3.600     0.392    0.0208
   07/10/2005 18:05:00      8.400     0.916    0.0242
   07/10/2005 18:10:00     21.600     2.354    0.0350
   07/10/2005 18:15:00     12.000     1.308    0.0728
   07/10/2005 18:20:00     24.000     2.616    0.0924
   07/10/2005 18:25:00     24.000     2.616    0.1440
   07/10/2005 18:30:00      7.200     0.785    0.1966
   07/10/2005 18:35:00     18.000     1.962    0.1913
   07/10/2005 18:40:00      4.800     0.523    0.2220
   07/10/2005 18:45:00     10.800     1.177    0.2054
   07/10/2005 18:50:00     25.200     2.747    0.2112
   07/10/2005 18:55:00     28.800     3.139    0.2661
   07/10/2005 19:00:00     54.000     5.886    0.3306
   07/10/2005 19:05:00     21.600     2.354    0.4975
   07/10/2005 19:10:00     10.800     1.177    0.4992
   07/10/2005 19:15:00      2.400     0.262    0.4542
   07/10/2005 19:20:00      1.200     0.131    0.3852
   07/10/2005 19:25:00      0.000     0.000    0.3282
   07/10/2005 19:30:00      0.000     0.000    0.2797
   07/10/2005 19:35:00      1.200     0.131    0.2417
   07/10/2005 19:40:00      0.000     0.000    0.2153
   07/10/2005 19:45:00      0.000     0.000    0.1901
   07/10/2005 19:50:00      0.000     0.000    0.1695
   07/10/2005 19:55:00      1.200     0.131    0.1524
   07/10/2005 20:00:00      8.400     0.916    0.1413
   07/10/2005 20:05:00      7.200     0.785    0.1514
   07/10/2005 20:10:00      2.400     0.262    0.1573
   07/10/2005 20:15:00      1.200     0.131    0.1492
   07/10/2005 20:20:00      2.400     0.262    0.1391
   07/10/2005 20:25:00      3.600     0.392    0.1335
   07/10/2005 20:30:00      3.600     0.392    0.1318
   07/10/2005 20:35:00      2.400     0.262    0.1304
   07/10/2005 20:40:00      1.200     0.131    0.1261
   07/10/2005 20:45:00      1.200     0.131    0.1194
   07/10/2005 20:50:00      0.000     0.000    0.1135
   07/10/2005 20:55:00      1.200     0.131    0.1056
   07/10/2005 21:00:00      1.200     0.131    0.1014
   07/10/2005 21:05:00      1.200     0.131    0.0976
   07/10/2005 21:10:00      1.200     0.131    0.0943
   07/10/2005 21:15:00      0.000     0.000    0.0913
   07/10/2005 21:20:00      0.000     0.000    0.0862
   07/10/2005 21:25:00      0.000     0.000    0.0815
   07/10/2005 21:30:00      0.000     0.000    0.0774
   07/10/2005 21:35:00      0.000     0.000    0.0737
   07/10/2005 21:40:00      0.000     0.000    0.0704
   07/10/2005 21:45:00      0.000     0.000    0.0673
   07/10/2005 21:50:00      0.000     0.000    0.0646
   07/10/2005 21:55:00      0.000     0.000    0.0620
   07/10/2005 22:00:00      0.000     0.000    0.0597
   07/10/2005 22:05:00      0.000     0.000    0.0576
   07/10/2005 22:10:00      0.000     0.000    0.0556
  
  
  <<< Subcatchment S10 >>>
  ---------------------------------------------------
  Date        Time        Precip.    Losses    Runoff
                            mm/hr     mm/hr       CMS
  ---------------------------------------------------
   07/10/2005 17:15:00      1.200     0.336    0.0000
   07/10/2005 17:20:00      3.600     0.984    0.0000
   07/10/2005 17:25:00      7.200     1.826    0.0003
   07/10/2005 17:30:00     10.800     2.345    0.0013
   07/10/2005 17:35:00      6.000     1.021    0.0040
   07/10/2005 17:40:00      3.600     0.539    0.0067
   07/10/2005 17:45:00      2.400     0.334    0.0076
   07/10/2005 17:50:00      3.600     0.476    0.0074
   07/10/2005 17:55:00      3.600     0.442    0.0083
   07/10/2005 18:00:00      3.600     0.432    0.0090
   07/10/2005 18:05:00      8.400     1.008    0.0095
   07/10/2005 18:10:00     21.600     2.592    0.0143
   07/10/2005 18:15:00     12.000     1.440    0.0341
   07/10/2005 18:20:00     24.000     2.880    0.0358
   07/10/2005 18:25:00     24.000     2.880    0.0549
   07/10/2005 18:30:00      7.200     0.864    0.0676
   07/10/2005 18:35:00     18.000     2.160    0.0490
   07/10/2005 18:40:00      4.800     0.576    0.0565
   07/10/2005 18:45:00     10.800     1.296    0.0418
   07/10/2005 18:50:00     25.200     3.024    0.0428
   07/10/2005 18:55:00     28.800     3.456    0.0661
   07/10/2005 19:00:00     54.000     6.480    0.0880
   07/10/2005 19:05:00     21.600     2.592    0.1515
   07/10/2005 19:10:00     10.800     1.296    0.1214
   07/10/2005 19:15:00      2.400     0.288    0.0918
   07/10/2005 19:20:00      1.200     0.144    0.0660
   07/10/2005 19:25:00      0.000     0.000    0.0515
   07/10/2005 19:30:00      0.000     0.000    0.0417
   07/10/2005 19:35:00      1.200     0.144    0.0356
   07/10/2005 19:40:00      0.000     0.000    0.0325
   07/10/2005 19:45:00      0.000     0.000    0.0289
   07/10/2005 19:50:00      0.000     0.000    0.0262
   07/10/2005 19:55:00      1.200     0.144    0.0239
   07/10/2005 20:00:00      8.400     1.008    0.0231
   07/10/2005 20:05:00      7.200     0.864    0.0290
   07/10/2005 20:10:00      2.400     0.288    0.0331
   07/10/2005 20:15:00      1.200     0.144    0.0308
   07/10/2005 20:20:00      2.400     0.288    0.0278
   07/10/2005 20:25:00      3.600     0.432    0.0268
   07/10/2005 20:30:00      3.600     0.432    0.0272
   07/10/2005 20:35:00      2.400     0.288    0.0274
   07/10/2005 20:40:00      1.200     0.144    0.0263
   07/10/2005 20:45:00      1.200     0.144    0.0242
   07/10/2005 20:50:00      0.000     0.000    0.0226
   07/10/2005 20:55:00      1.200     0.144    0.0202
   07/10/2005 21:00:00      1.200     0.144    0.0194
   07/10/2005 21:05:00      1.200     0.144    0.0187
   07/10/2005 21:10:00      1.200     0.144    0.0180
   07/10/2005 21:15:00      0.000     0.000    0.0175
   07/10/2005 21:20:00      0.000     0.000    0.0160
   07/10/2005 21:25:00      0.000     0.000    0.0148
   07/10/2005 21:30:00      0.000     0.000    0.0138
   07/10/2005 21:35:00      0.000     0.000    0.0129
   07/10/2005 21:40:00      0.000     0.000    0.0122
   07/10/2005 21:45:00      0.000     0.000    0.0115
   07/10/2005 21:50:00      0.000     0.000    0.0109
   07/10/2005 21:55:00      0.000     0.000    0.0103
   07/10/2005 22:00:00      0.000     0.000    0.0098
   07/10/2005 22:05:00      0.000     0.000    0.0094
   07/10/2005 22:10:00      0.000     0.000    0.0090
  
  
  <<< Subcatchment S11 >>>
  ---------------------------------------------------
  Date        Time        Precip.    Losses    Runoff
                            mm/hr     mm/hr       CMS
  ---------------------------------------------------
   07/10/2005 17:15:00      1.200     0.336    0.0000
   07/10/2005 17:20:00      3.600     0.984    0.0000
   07/10/2005 17:25:00      7.200     1.826    0.0000
   07/10/2005 17:30:00     10.800     2.345    0.0024
   07/10/2005 17:35:00      6.000     1.021    0.0079
   07/10/2005 17:40:00      3.600     0.539    0.0140
   07/10/2005 17:45:00      2.400     0.334    0.0170
   07/10/2005 17:50:00      3.600     0.476    0.0180
   07/10/2005 17:55:00      3.600     0.442    0.0209
   07/10/2005 18:00:00      3.600     0.432    0.0236
   07/10/2005 18:05:00      8.400     1.008    0.0259
   07/10/2005 18:10:00     21.600     2.592    0.0378
   07/10/2005 18:15:00     12.000     1.440    0.0839
   07/10/2005 18:20:00     24.000     2.880    0.0963
   07/10/2005 18:25:00     24.000     2.880    0.1470
   07/10/2005 18:30:00      7.200     0.864    0.1875
   07/10/2005 18:35:00     18.000     2.160    0.1533
   07/10/2005 18:40:00      4.800     0.576    0.1717
   07/10/2005 18:45:00     10.800     1.296    0.1375
   07/10/2005 18:50:00     25.200     3.024    0.1367
   07/10/2005 18:55:00     28.800     3.456    0.1901
   07/10/2005 19:00:00     54.000     6.480    0.2466
   07/10/2005 19:05:00     21.600     2.592    0.4074
   07/10/2005 19:10:00     10.800     1.296    0.3587
   07/10/2005 19:15:00      2.400     0.288    0.2870
   07/10/2005 19:20:00      1.200     0.144    0.2145
   07/10/2005 19:25:00      0.000     0.000    0.1682
   07/10/2005 19:30:00      0.000     0.000    0.1354
   07/10/2005 19:35:00      1.200     0.144    0.1136
   07/10/2005 19:40:00      0.000     0.000    0.1017
   07/10/2005 19:45:00      0.000     0.000    0.0897
   07/10/2005 19:50:00      0.000     0.000    0.0806
   07/10/2005 19:55:00      1.200     0.144    0.0735
   07/10/2005 20:00:00      8.400     1.008    0.0703
   07/10/2005 20:05:00      7.200     0.864    0.0843
   07/10/2005 20:10:00      2.400     0.288    0.0940
   07/10/2005 20:15:00      1.200     0.144    0.0895
   07/10/2005 20:20:00      2.400     0.288    0.0829
   07/10/2005 20:25:00      3.600     0.432    0.0805
   07/10/2005 20:30:00      3.600     0.432    0.0815
   07/10/2005 20:35:00      2.400     0.288    0.0822
   07/10/2005 20:40:00      1.200     0.144    0.0799
   07/10/2005 20:45:00      1.200     0.144    0.0750
   07/10/2005 20:50:00      0.000     0.000    0.0711
   07/10/2005 20:55:00      1.200     0.144    0.0653
   07/10/2005 21:00:00      1.200     0.144    0.0629
   07/10/2005 21:05:00      1.200     0.144    0.0609
   07/10/2005 21:10:00      1.200     0.144    0.0591
   07/10/2005 21:15:00      0.000     0.000    0.0575
   07/10/2005 21:20:00      0.000     0.000    0.0538
   07/10/2005 21:25:00      0.000     0.000    0.0506
   07/10/2005 21:30:00      0.000     0.000    0.0479
   07/10/2005 21:35:00      0.000     0.000    0.0454
   07/10/2005 21:40:00      0.000     0.000    0.0433
   07/10/2005 21:45:00      0.000     0.000    0.0414
   07/10/2005 21:50:00      0.000     0.000    0.0396
   07/10/2005 21:55:00      0.000     0.000    0.0380
   07/10/2005 22:00:00      0.000     0.000    0.0366
   07/10/2005 22:05:00      0.000     0.000    0.0352
   07/10/2005 22:10:00      0.000     0.000    0.0340
  
  
  <<< Subcatchment S12 >>>
  ---------------------------------------------------
  Date        Time        Precip.    Losses    Runoff
                            mm/hr     mm/hr       CMS
  ---------------------------------------------------
   07/10/2005 17:15:00      1.200     0.224    0.0000
   07/10/2005 17:20:00      3.600     0.656    0.0000
   07/10/2005 17:25:00      7.200     1.217    0.0000
   07/10/2005 17:30:00     10.800     1.563    0.0014
   07/10/2005 17:35:00      6.000     0.681    0.0050
   07/10/2005 17:40:00      3.600     0.359    0.0093
   07/10/2005 17:45:00      2.400     0.222    0.0121
   07/10/2005 17:50:00      3.600     0.318    0.0138
   07/10/2005 17:55:00      3.600     0.295    0.0169
   07/10/2005 18:00:00      3.600     0.288    0.0201
   07/10/2005 18:05:00      8.400     0.672    0.0233
   07/10/2005 18:10:00     21.600     1.728    0.0336
   07/10/2005 18:15:00     12.000     0.960    0.0701
   07/10/2005 18:20:00     24.000     1.920    0.0882
   07/10/2005 18:25:00     24.000     1.920    0.1371
   07/10/2005 18:30:00      7.200     0.576    0.1857
   07/10/2005 18:35:00     18.000     1.440    0.1776
   07/10/2005 18:40:00      4.800     0.384    0.2047
   07/10/2005 18:45:00     10.800     0.864    0.1863
   07/10/2005 18:50:00     25.200     2.016    0.1900
   07/10/2005 18:55:00     28.800     2.304    0.2405
   07/10/2005 19:00:00     54.000     4.320    0.2992
   07/10/2005 19:05:00     21.600     1.728    0.4543
   07/10/2005 19:10:00     10.800     0.864    0.4492
   07/10/2005 19:15:00      2.400     0.192    0.4018
   07/10/2005 19:20:00      1.200     0.096    0.3342
   07/10/2005 19:25:00      0.000     0.000    0.2800
   07/10/2005 19:30:00      0.000     0.000    0.2350
   07/10/2005 19:35:00      1.200     0.096    0.2004
   07/10/2005 19:40:00      0.000     0.000    0.1768
   07/10/2005 19:45:00      0.000     0.000    0.1545
   07/10/2005 19:50:00      0.000     0.000    0.1365
   07/10/2005 19:55:00      1.200     0.096    0.1217
   07/10/2005 20:00:00      8.400     0.672    0.1123
   07/10/2005 20:05:00      7.200     0.576    0.1221
   07/10/2005 20:10:00      2.400     0.192    0.1279
   07/10/2005 20:15:00      1.200     0.096    0.1207
   07/10/2005 20:20:00      2.400     0.192    0.1117
   07/10/2005 20:25:00      3.600     0.288    0.1069
   07/10/2005 20:30:00      3.600     0.288    0.1055
   07/10/2005 20:35:00      2.400     0.192    0.1044
   07/10/2005 20:40:00      1.200     0.096    0.1006
   07/10/2005 20:45:00      1.200     0.096    0.0945
   07/10/2005 20:50:00      0.000     0.000    0.0893
   07/10/2005 20:55:00      1.200     0.096    0.0822
   07/10/2005 21:00:00      1.200     0.096    0.0784
   07/10/2005 21:05:00      1.200     0.096    0.0751
   07/10/2005 21:10:00      1.200     0.096    0.0722
   07/10/2005 21:15:00      0.000     0.000    0.0696
   07/10/2005 21:20:00      0.000     0.000    0.0649
   07/10/2005 21:25:00      0.000     0.000    0.0608
   07/10/2005 21:30:00      0.000     0.000    0.0572
   07/10/2005 21:35:00      0.000     0.000    0.0539
   07/10/2005 21:40:00      0.000     0.000    0.0510
   07/10/2005 21:45:00      0.000     0.000    0.0483
   07/10/2005 21:50:00      0.000     0.000    0.0459
   07/10/2005 21:55:00      0.000     0.000    0.0437
   07/10/2005 22:00:00      0.000     0.000    0.0416
   07/10/2005 22:05:00      0.000     0.000    0.0398
   07/10/2005 22:10:00      0.000     0.000    0.0381
  
  
  <<< Subcatchment S13 >>>
  ---------------------------------------------------
  Date        Time        Precip.    Losses    Runoff
                            mm/hr     mm/hr       CMS
  ---------------------------------------------------
   07/10/2005 17:15:00      1.200     0.224    0.0000
   07/10/2005 17:20:00      3.600     0.656    0.0000
   07/10/2005 17:25:00      7.200     1.217    0.0000
   07/10/2005 17:30:00     10.800     1.563    0.0018
   07/10/2005 17:35:00      6.000     0.681    0.0061
   07/10/2005 17:40:00      3.600     0.359    0.0113
   07/10/2005 17:45:00      2.400     0.222    0.0146
   07/10/2005 17:50:00      3.600     0.318    0.0164
   07/10/2005 17:55:00      3.600     0.295    0.0199
   07/10/2005 18:00:00      3.600     0.288    0.0234
   07/10/2005 18:05:00      8.400     0.672    0.0268
   07/10/2005 18:10:00     21.600     1.728    0.0387
   07/10/2005 18:15:00     12.000     0.960    0.0815
   07/10/2005 18:20:00     24.000     1.920    0.1008
   07/10/2005 18:25:00     24.000     1.920    0.1558
   07/10/2005 18:30:00      7.200     0.576    0.2083
   07/10/2005 18:35:00     18.000     1.440    0.1928
   07/10/2005 18:40:00      4.800     0.384    0.2197
   07/10/2005 18:45:00     10.800     0.864    0.1941
   07/10/2005 18:50:00     25.200     2.016    0.1956
   07/10/2005 18:55:00     28.800     2.304    0.2507
   07/10/2005 19:00:00     54.000     4.320    0.3137
   07/10/2005 19:05:00     21.600     1.728    0.4848
   07/10/2005 19:10:00     10.800     0.864    0.4675
   07/10/2005 19:15:00      2.400     0.192    0.4063
   07/10/2005 19:20:00      1.200     0.096    0.3278
   07/10/2005 19:25:00      0.000     0.000    0.2679
   07/10/2005 19:30:00      0.000     0.000    0.2202
   07/10/2005 19:35:00      1.200     0.096    0.1849
   07/10/2005 19:40:00      0.000     0.000    0.1618
   07/10/2005 19:45:00      0.000     0.000    0.1401
   07/10/2005 19:50:00      0.000     0.000    0.1229
   07/10/2005 19:55:00      1.200     0.096    0.1090
   07/10/2005 20:00:00      8.400     0.672    0.1008
   07/10/2005 20:05:00      7.200     0.576    0.1127
   07/10/2005 20:10:00      2.400     0.192    0.1201
   07/10/2005 20:15:00      1.200     0.096    0.1133
   07/10/2005 20:20:00      2.400     0.192    0.1044
   07/10/2005 20:25:00      3.600     0.288    0.1000
   07/10/2005 20:30:00      3.600     0.288    0.0994
   07/10/2005 20:35:00      2.400     0.192    0.0988
   07/10/2005 20:40:00      1.200     0.096    0.0952
   07/10/2005 20:45:00      1.200     0.096    0.0891
   07/10/2005 20:50:00      0.000     0.000    0.0840
   07/10/2005 20:55:00      1.200     0.096    0.0767
   07/10/2005 21:00:00      1.200     0.096    0.0732
   07/10/2005 21:05:00      1.200     0.096    0.0701
   07/10/2005 21:10:00      1.200     0.096    0.0674
   07/10/2005 21:15:00      0.000     0.000    0.0649
   07/10/2005 21:20:00      0.000     0.000    0.0603
   07/10/2005 21:25:00      0.000     0.000    0.0562
   07/10/2005 21:30:00      0.000     0.000    0.0526
   07/10/2005 21:35:00      0.000     0.000    0.0494
   07/10/2005 21:40:00      0.000     0.000    0.0466
   07/10/2005 21:45:00      0.000     0.000    0.0440
   07/10/2005 21:50:00      0.000     0.000    0.0417
   07/10/2005 21:55:00      0.000     0.000    0.0396
   07/10/2005 22:00:00      0.000     0.000    0.0377
   07/10/2005 22:05:00      0.000     0.000    0.0359
   07/10/2005 22:10:00      0.000     0.000    0.0343
  
  
  <<< Subcatchment S14 >>>
  ---------------------------------------------------
  Date        Time        Precip.    Losses    Runoff
                            mm/hr     mm/hr       CMS
  ---------------------------------------------------
   07/10/2005 17:15:00      1.200     0.336    0.0000
   07/10/2005 17:20:00      3.600     0.984    0.0000
   07/10/2005 17:25:00      7.200     1.826    0.0000
   07/10/2005 17:30:00     10.800     2.345    0.0014
   07/10/2005 17:35:00      6.000     1.021    0.0049
   07/10/2005 17:40:00      3.600     0.539    0.0090
   07/10/2005 17:45:00      2.400     0.334    0.0116
   07/10/2005 17:50:00      3.600     0.476    0.0130
   07/10/2005 17:55:00      3.600     0.442    0.0157
   07/10/2005 18:00:00      3.600     0.432    0.0184
   07/10/2005 18:05:00      8.400     1.008    0.0211
   07/10/2005 18:10:00     21.600     2.592    0.0305
   07/10/2005 18:15:00     12.000     1.440    0.0643
   07/10/2005 18:20:00     24.000     2.880    0.0793
   07/10/2005 18:25:00     24.000     2.880    0.1224
   07/10/2005 18:30:00      7.200     0.864    0.1632
   07/10/2005 18:35:00     18.000     2.160    0.1503
   07/10/2005 18:40:00      4.800     0.576    0.1710
   07/10/2005 18:45:00     10.800     1.296    0.1504
   07/10/2005 18:50:00     25.200     3.024    0.1514
   07/10/2005 18:55:00     28.800     3.456    0.1947
   07/10/2005 19:00:00     54.000     6.480    0.2441
   07/10/2005 19:05:00     21.600     2.592    0.3787
   07/10/2005 19:10:00     10.800     1.296    0.3643
   07/10/2005 19:15:00      2.400     0.288    0.3161
   07/10/2005 19:20:00      1.200     0.144    0.2549
   07/10/2005 19:25:00      0.000     0.000    0.2088
   07/10/2005 19:30:00      0.000     0.000    0.1724
   07/10/2005 19:35:00      1.200     0.144    0.1458
   07/10/2005 19:40:00      0.000     0.000    0.1287
   07/10/2005 19:45:00      0.000     0.000    0.1125
   07/10/2005 19:50:00      0.000     0.000    0.0998
   07/10/2005 19:55:00      1.200     0.144    0.0897
   07/10/2005 20:00:00      8.400     1.008    0.0839
   07/10/2005 20:05:00      7.200     0.864    0.0939
   07/10/2005 20:10:00      2.400     0.288    0.1004
   07/10/2005 20:15:00      1.200     0.144    0.0956
   07/10/2005 20:20:00      2.400     0.288    0.0891
   07/10/2005 20:25:00      3.600     0.432    0.0862
   07/10/2005 20:30:00      3.600     0.432    0.0861
   07/10/2005 20:35:00      2.400     0.288    0.0861
   07/10/2005 20:40:00      1.200     0.144    0.0838
   07/10/2005 20:45:00      1.200     0.144    0.0794
   07/10/2005 20:50:00      0.000     0.000    0.0757
   07/10/2005 20:55:00      1.200     0.144    0.0703
   07/10/2005 21:00:00      1.200     0.144    0.0678
   07/10/2005 21:05:00      1.200     0.144    0.0657
   07/10/2005 21:10:00      1.200     0.144    0.0638
   07/10/2005 21:15:00      0.000     0.000    0.0621
   07/10/2005 21:20:00      0.000     0.000    0.0586
   07/10/2005 21:25:00      0.000     0.000    0.0556
   07/10/2005 21:30:00      0.000     0.000    0.0529
   07/10/2005 21:35:00      0.000     0.000    0.0505
   07/10/2005 21:40:00      0.000     0.000    0.0484
   07/10/2005 21:45:00      0.000     0.000    0.0465
   07/10/2005 21:50:00      0.000     0.000    0.0448
   07/10/2005 21:55:00      0.000     0.000    0.0432
   07/10/2005 22:00:00      0.000     0.000    0.0417
   07/10/2005 22:05:00      0.000     0.000    0.0404
   07/10/2005 22:10:00      0.000     0.000    0.0392
  
  
  <<< Subcatchment S15 >>>
  ---------------------------------------------------
  Date        Time        Precip.    Losses    Runoff
                            mm/hr     mm/hr       CMS
  ---------------------------------------------------
   07/10/2005 17:15:00      1.200     0.280    0.0000
   07/10/2005 17:20:00      3.600     0.820    0.0000
   07/10/2005 17:25:00      7.200     1.522    0.0000
   07/10/2005 17:30:00     10.800     1.954    0.0014
   07/10/2005 17:35:00      6.000     0.851    0.0049
   07/10/2005 17:40:00      3.600     0.449    0.0089
   07/10/2005 17:45:00      2.400     0.278    0.0115
   07/10/2005 17:50:00      3.600     0.397    0.0129
   07/10/2005 17:55:00      3.600     0.368    0.0156
   07/10/2005 18:00:00      3.600     0.360    0.0182
   07/10/2005 18:05:00      8.400     0.840    0.0208
   07/10/2005 18:10:00     21.600     2.160    0.0301
   07/10/2005 18:15:00     12.000     1.200    0.0637
   07/10/2005 18:20:00     24.000     2.400    0.0782
   07/10/2005 18:25:00     24.000     2.400    0.1208
   07/10/2005 18:30:00      7.200     0.720    0.1607
   07/10/2005 18:35:00     18.000     1.800    0.1473
   07/10/2005 18:40:00      4.800     0.480    0.1673
   07/10/2005 18:45:00     10.800     1.080    0.1465
   07/10/2005 18:50:00     25.200     2.520    0.1473
   07/10/2005 18:55:00     28.800     2.880    0.1897
   07/10/2005 19:00:00     54.000     5.400    0.2381
   07/10/2005 19:05:00     21.600     2.160    0.3703
   07/10/2005 19:10:00     10.800     1.080    0.3546
   07/10/2005 19:15:00      2.400     0.240    0.3061
   07/10/2005 19:20:00      1.200     0.120    0.2454
   07/10/2005 19:25:00      0.000     0.000    0.1999
   07/10/2005 19:30:00      0.000     0.000    0.1642
   07/10/2005 19:35:00      1.200     0.120    0.1380
   07/10/2005 19:40:00      0.000     0.000    0.1212
   07/10/2005 19:45:00      0.000     0.000    0.1055
   07/10/2005 19:50:00      0.000     0.000    0.0930
   07/10/2005 19:55:00      1.200     0.120    0.0831
   07/10/2005 20:00:00      8.400     0.840    0.0774
   07/10/2005 20:05:00      7.200     0.720    0.0871
   07/10/2005 20:10:00      2.400     0.240    0.0933
   07/10/2005 20:15:00      1.200     0.120    0.0885
   07/10/2005 20:20:00      2.400     0.240    0.0820
   07/10/2005 20:25:00      3.600     0.360    0.0790
   07/10/2005 20:30:00      3.600     0.360    0.0788
   07/10/2005 20:35:00      2.400     0.240    0.0787
   07/10/2005 20:40:00      1.200     0.120    0.0762
   07/10/2005 20:45:00      1.200     0.120    0.0718
   07/10/2005 20:50:00      0.000     0.000    0.0680
   07/10/2005 20:55:00      1.200     0.120    0.0626
   07/10/2005 21:00:00      1.200     0.120    0.0601
   07/10/2005 21:05:00      1.200     0.120    0.0579
   07/10/2005 21:10:00      1.200     0.120    0.0559
   07/10/2005 21:15:00      0.000     0.000    0.0542
   07/10/2005 21:20:00      0.000     0.000    0.0507
   07/10/2005 21:25:00      0.000     0.000    0.0477
   07/10/2005 21:30:00      0.000     0.000    0.0450
   07/10/2005 21:35:00      0.000     0.000    0.0427
   07/10/2005 21:40:00      0.000     0.000    0.0406
   07/10/2005 21:45:00      0.000     0.000    0.0386
   07/10/2005 21:50:00      0.000     0.000    0.0369
   07/10/2005 21:55:00      0.000     0.000    0.0353
   07/10/2005 22:00:00      0.000     0.000    0.0339
   07/10/2005 22:05:00      0.000     0.000    0.0326
   07/10/2005 22:10:00      0.000     0.000    0.0313
  
  
  ************
  Node Results
  ************
  
  <<< Node J0 >>>
  ----------------------------------------------------------------
                           Inflow  Flooding     Depth      Head
  Date        Time            CMS       CMS    meters    meters
  ----------------------------------------------------------------
   07/10/2005 17:15:00      0.000     0.000     0.011    31.001
   07/10/2005 17:20:00      0.000     0.000     0.006    30.996
   07/10/2005 17:25:00      0.000     0.000     0.005    30.995
   07/10/2005 17:30:00      0.001     0.000     0.012    31.002
   07/10/2005 17:35:00      0.005     0.000     0.024    31.014
   07/10/2005 17:40:00      0.009     0.000     0.034    31.024
   07/10/2005 17:45:00      0.011     0.000     0.040    31.030
[...]
   07/10/2005 17:55:00      0.031     0.770     0.067     0.006
   07/10/2005 18:00:00      0.039     0.819     0.076     0.007
   07/10/2005 18:05:00      0.047     0.857     0.083     0.008
   07/10/2005 18:10:00      0.056     0.896     0.091     0.009
   07/10/2005 18:15:00      0.080     0.990     0.108     0.011
   07/10/2005 18:20:00      0.145     1.191     0.141     0.017
   07/10/2005 18:25:00      0.220     1.352     0.172     0.023
   07/10/2005 18:30:00      0.331     1.525     0.209     0.031
   07/10/2005 18:35:00      0.422     1.651     0.234     0.036
   07/10/2005 18:40:00      0.425     1.636     0.237     0.037
   07/10/2005 18:45:00      0.434     1.649     0.239     0.037
   07/10/2005 18:50:00      0.405     1.602     0.232     0.036
   07/10/2005 18:55:00      0.416     1.610     0.236     0.037
   07/10/2005 19:00:00      0.520     1.729     0.261     0.043
   07/10/2005 19:05:00      0.724     1.902     0.307     0.054
   07/10/2005 19:10:00      0.994     2.131     0.352     0.066
   07/10/2005 19:15:00      0.947     2.082     0.346     0.064
   07/10/2005 19:20:00      0.801     1.973     0.320     0.057
   07/10/2005 19:25:00      0.650     1.848     0.290     0.050
   07/10/2005 19:30:00      0.533     1.738     0.264     0.043
   07/10/2005 19:35:00      0.444     1.651     0.243     0.038
   07/10/2005 19:40:00      0.380     1.572     0.225     0.034
   07/10/2005 19:45:00      0.335     1.514     0.212     0.031
   07/10/2005 19:50:00      0.297     1.463     0.200     0.029
   07/10/2005 19:55:00      0.266     1.419     0.189     0.026
   07/10/2005 20:00:00      0.242     1.386     0.181     0.025
   07/10/2005 20:05:00      0.232     1.367     0.178     0.024
   07/10/2005 20:10:00      0.246     1.396     0.182     0.025
   07/10/2005 20:15:00      0.264     1.432     0.187     0.026
   07/10/2005 20:20:00      0.261     1.429     0.187     0.026
   07/10/2005 20:25:00      0.248     1.407     0.182     0.025
   07/10/2005 20:30:00      0.240     1.395     0.179     0.024
   07/10/2005 20:35:00      0.237     1.390     0.178     0.024
   07/10/2005 20:40:00      0.236     1.390     0.178     0.024
   07/10/2005 20:45:00      0.231     1.382     0.176     0.024
   07/10/2005 20:50:00      0.221     1.364     0.172     0.023
   07/10/2005 20:55:00      0.210     1.342     0.168     0.022
   07/10/2005 21:00:00      0.198     1.317     0.163     0.021
   07/10/2005 21:05:00      0.188     1.298     0.159     0.021
   07/10/2005 21:10:00      0.182     1.285     0.156     0.020
   07/10/2005 21:15:00      0.176     1.274     0.153     0.020
   07/10/2005 21:20:00      0.171     1.264     0.151     0.019
   07/10/2005 21:25:00      0.163     1.247     0.148     0.018
   07/10/2005 21:30:00      0.155     1.229     0.144     0.018
   07/10/2005 21:35:00      0.147     1.212     0.140     0.017
   07/10/2005 21:40:00      0.140     1.196     0.137     0.017
   07/10/2005 21:45:00      0.134     1.181     0.134     0.016
   07/10/2005 21:50:00      0.128     1.168     0.132     0.016
   07/10/2005 21:55:00      0.123     1.156     0.129     0.015
   07/10/2005 22:00:00      0.119     1.145     0.127     0.015
   07/10/2005 22:05:00      0.114     1.134     0.125     0.014
   07/10/2005 22:10:00      0.110     1.124     0.123     0.014
  
  
  <<< Link C21 >>>
  ----------------------------------------------------------------
                             Flow  Velocity     Depth  Capacity/
  Date        Time            CMS     m/sec    meters   Setting 
  ----------------------------------------------------------------
   07/10/2005 17:15:00      0.000     0.000     0.000     0.000
   07/10/2005 17:20:00      0.000     0.000     0.001     0.000
   07/10/2005 17:25:00      0.000     0.397     0.004     0.001
   07/10/2005 17:30:00      0.001     0.605     0.010     0.002
   07/10/2005 17:35:00      0.003     0.923     0.020     0.005
   07/10/2005 17:40:00      0.008     1.045     0.031     0.009
   07/10/2005 17:45:00      0.011     0.962     0.042     0.014
   07/10/2005 17:50:00      0.012     0.831     0.050     0.019
   07/10/2005 17:55:00      0.015     0.815     0.058     0.023
   07/10/2005 18:00:00      0.017     0.835     0.063     0.027
   07/10/2005 18:05:00      0.020     0.857     0.068     0.030
   07/10/2005 18:10:00      0.028     1.002     0.077     0.035
   07/10/2005 18:15:00      0.056     1.418     0.098     0.051
   07/10/2005 18:20:00      0.075     1.394     0.121     0.069
   07/10/2005 18:25:00      0.112     1.561     0.147     0.091
   07/10/2005 18:30:00      0.154     1.667     0.175     0.117
   07/10/2005 18:35:00      0.150     1.500     0.185     0.127
   07/10/2005 18:40:00      0.164     1.592     0.189     0.131
   07/10/2005 18:45:00      0.150     1.488     0.186     0.129
   07/10/2005 18:50:00      0.147     1.509     0.182     0.124
   07/10/2005 18:55:00      0.182     1.732     0.192     0.134
   07/10/2005 19:00:00      0.231     1.868     0.214     0.157
   07/10/2005 19:05:00      0.351     2.192     0.257     0.204
   07/10/2005 19:10:00      0.357     1.986     0.280     0.229
   07/10/2005 19:15:00      0.313     1.848     0.268     0.216
   07/10/2005 19:20:00      0.255     1.705     0.245     0.190
   07/10/2005 19:25:00      0.207     1.601     0.222     0.165
   07/10/2005 19:30:00      0.171     1.506     0.202     0.144
   07/10/2005 19:35:00      0.143     1.423     0.185     0.128
   07/10/2005 19:40:00      0.125     1.374     0.173     0.115
   07/10/2005 19:45:00      0.109     1.312     0.162     0.105
   07/10/2005 19:50:00      0.096     1.255     0.153     0.097
   07/10/2005 19:55:00      0.085     1.206     0.145     0.090
   07/10/2005 20:00:00      0.079     1.182     0.139     0.085
   07/10/2005 20:05:00      0.085     1.272     0.140     0.085
   07/10/2005 20:10:00      0.092     1.311     0.145     0.089
   07/10/2005 20:15:00      0.090     1.251     0.147     0.091
   07/10/2005 20:20:00      0.083     1.194     0.144     0.089
   07/10/2005 20:25:00      0.080     1.179     0.141     0.086
   07/10/2005 20:30:00      0.079     1.188     0.139     0.085
   07/10/2005 20:35:00      0.079     1.191     0.139     0.084
   07/10/2005 20:40:00      0.077     1.172     0.138     0.083
   07/10/2005 20:45:00      0.073     1.138     0.136     0.081
   07/10/2005 20:50:00      0.069     1.113     0.133     0.079
   07/10/2005 20:55:00      0.064     1.077     0.129     0.075
   07/10/2005 21:00:00      0.061     1.065     0.125     0.073
   07/10/2005 21:05:00      0.058     1.058     0.123     0.070
   07/10/2005 21:10:00      0.056     1.048     0.121     0.069
   07/10/2005 21:15:00      0.055     1.036     0.119     0.067
   07/10/2005 21:20:00      0.052     1.006     0.117     0.065
   07/10/2005 21:25:00      0.048     0.979     0.114     0.063
   07/10/2005 21:30:00      0.046     0.958     0.111     0.061
   07/10/2005 21:35:00      0.043     0.941     0.108     0.059
   07/10/2005 21:40:00      0.041     0.924     0.106     0.057
   07/10/2005 21:45:00      0.039     0.909     0.103     0.055
   07/10/2005 21:50:00      0.037     0.895     0.101     0.053
   07/10/2005 21:55:00      0.036     0.881     0.099     0.052
   07/10/2005 22:00:00      0.034     0.867     0.098     0.050
   07/10/2005 22:05:00      0.033     0.853     0.096     0.049
   07/10/2005 22:10:00      0.032     0.840     0.094     0.048
  
  
  <<< Link C23 >>>
  ----------------------------------------------------------------
                             Flow  Velocity     Depth  Capacity/
  Date        Time            CMS     m/sec    meters   Setting 
  ----------------------------------------------------------------
   07/10/2005 17:15:00      0.068     1.002     0.090     0.007
   07/10/2005 17:20:00      0.059     1.002     0.082     0.006
   07/10/2005 17:25:00      0.044     0.984     0.069     0.004
   07/10/2005 17:30:00      0.033     0.937     0.057     0.003
   07/10/2005 17:35:00      0.025     0.887     0.049     0.003
   07/10/2005 17:40:00      0.022     0.866     0.046     0.003
   07/10/2005 17:45:00      0.027     0.901     0.052     0.003
   07/10/2005 17:50:00      0.047     0.986     0.072     0.005
   07/10/2005 17:55:00      0.085     1.005     0.104     0.008
   07/10/2005 18:00:00      0.131     1.014     0.139     0.013
   07/10/2005 18:05:00      0.172     1.097     0.157     0.015
   07/10/2005 18:10:00      0.211     1.167     0.173     0.018
   07/10/2005 18:15:00      0.273     1.260     0.195     0.021
   07/10/2005 18:20:00      0.449     1.456     0.248     0.030
   07/10/2005 18:25:00      0.767     1.720     0.319     0.044
   07/10/2005 18:30:00      1.204     1.966     0.397     0.060
   07/10/2005 18:35:00      1.725     2.208     0.469     0.077
   07/10/2005 18:40:00      1.909     2.295     0.490     0.082
   07/10/2005 18:45:00      1.970     2.320     0.497     0.083
   07/10/2005 18:50:00      1.906     2.297     0.489     0.082
   07/10/2005 18:55:00      1.872     2.278     0.486     0.081
   07/10/2005 19:00:00      2.178     2.370     0.525     0.090
   07/10/2005 19:05:00      2.896     2.561     0.605     0.111
   07/10/2005 19:10:00      4.200     2.867     0.726     0.144
   07/10/2005 19:15:00      4.440     2.952     0.739     0.148
   07/10/2005 19:20:00      3.910     2.843     0.694     0.135
   07/10/2005 19:25:00      3.241     2.690     0.633     0.118
   07/10/2005 19:30:00      2.670     2.542     0.576     0.103
   07/10/2005 19:35:00      2.228     2.410     0.527     0.091
   07/10/2005 19:40:00      1.893     2.291     0.488     0.081
   07/10/2005 19:45:00      1.650     2.202     0.456     0.074
   07/10/2005 19:50:00      1.455     2.124     0.429     0.067
   07/10/2005 19:55:00      1.294     2.044     0.406     0.062
   07/10/2005 20:00:00      1.161     1.979     0.385     0.058
   07/10/2005 20:05:00      1.077     1.945     0.370     0.054
   07/10/2005 20:10:00      1.079     1.939     0.372     0.055
   07/10/2005 20:15:00      1.145     1.969     0.383     0.057
   07/10/2005 20:20:00      1.166     1.983     0.386     0.058
   07/10/2005 20:25:00      1.123     1.966     0.378     0.056
   07/10/2005 20:30:00      1.069     1.941     0.369     0.054
   07/10/2005 20:35:00      1.039     1.925     0.364     0.053
   07/10/2005 20:40:00      1.027     1.918     0.362     0.053
   07/10/2005 20:45:00      1.009     1.910     0.359     0.052
   07/10/2005 20:50:00      0.973     1.890     0.353     0.051
   07/10/2005 20:55:00      0.924     1.861     0.344     0.049
   07/10/2005 21:00:00      0.868     1.825     0.334     0.047
   07/10/2005 21:05:00      0.818     1.790     0.325     0.045
   07/10/2005 21:10:00      0.780     1.762     0.318     0.043
   07/10/2005 21:15:00      0.750     1.739     0.312     0.042
   07/10/2005 21:20:00      0.722     1.715     0.307     0.041
   07/10/2005 21:25:00      0.692     1.690     0.302     0.040
   07/10/2005 21:30:00      0.655     1.666     0.294     0.039
   07/10/2005 21:35:00      0.619     1.639     0.286     0.037
   07/10/2005 21:40:00      0.587     1.610     0.279     0.036
   07/10/2005 21:45:00      0.557     1.583     0.272     0.035
   07/10/2005 21:50:00      0.529     1.558     0.266     0.033
   07/10/2005 21:55:00      0.505     1.534     0.260     0.032
   07/10/2005 22:00:00      0.482     1.513     0.254     0.031
   07/10/2005 22:05:00      0.462     1.493     0.249     0.030
   07/10/2005 22:10:00      0.443     1.474     0.244     0.030
  
  
  <<< Link C24 >>>
  ----------------------------------------------------------------
                             Flow  Velocity     Depth  Capacity/
  Date        Time            CMS     m/sec    meters   Setting 
  ----------------------------------------------------------------
   07/10/2005 17:15:00      0.000     0.000     0.000     0.000
   07/10/2005 17:20:00      0.000     0.000     0.001     0.000
   07/10/2005 17:25:00      0.000     0.180     0.004     0.001
   07/10/2005 17:30:00      0.001     0.381     0.010     0.002
   07/10/2005 17:35:00      0.003     0.587     0.022     0.005
   07/10/2005 17:40:00      0.007     0.701     0.037     0.010
   07/10/2005 17:45:00      0.011     0.719     0.048     0.015
   07/10/2005 17:50:00      0.012     0.712     0.054     0.018
   07/10/2005 17:55:00      0.015     0.741     0.058     0.021
   07/10/2005 18:00:00      0.017     0.790     0.063     0.023
   07/10/2005 18:05:00      0.020     0.831     0.068     0.025
   07/10/2005 18:10:00      0.027     0.926     0.076     0.030
   07/10/2005 18:15:00      0.053     1.184     0.103     0.047
   07/10/2005 18:20:00      0.075     1.262     0.125     0.063
   07/10/2005 18:25:00      0.110     1.434     0.148     0.081
   07/10/2005 18:30:00      0.153     1.581     0.174     0.102
   07/10/2005 18:35:00      0.154     1.563     0.176     0.103
   07/10/2005 18:40:00      0.166     1.636     0.180     0.107
   07/10/2005 18:45:00      0.156     1.594     0.175     0.103
   07/10/2005 18:50:00      0.151     1.600     0.171     0.099
   07/10/2005 18:55:00      0.184     1.720     0.187     0.113
   07/10/2005 19:00:00      0.233     1.826     0.211     0.135
   07/10/2005 19:05:00      0.352     2.068     0.258     0.179
   07/10/2005 19:10:00      0.367     2.052     0.268     0.188
   07/10/2005 19:15:00      0.326     1.993     0.251     0.172
   07/10/2005 19:20:00      0.268     1.887     0.227     0.149
   07/10/2005 19:25:00      0.219     1.781     0.206     0.129
   07/10/2005 19:30:00      0.181     1.682     0.188     0.113
   07/10/2005 19:35:00      0.152     1.596     0.172     0.100
   07/10/2005 19:40:00      0.133     1.530     0.162     0.092
   07/10/2005 19:45:00      0.117     1.464     0.153     0.084
   07/10/2005 19:50:00      0.103     1.401     0.144     0.078
   07/10/2005 19:55:00      0.093     1.348     0.137     0.072
   07/10/2005 20:00:00      0.086     1.314     0.133     0.068
   07/10/2005 20:05:00      0.091     1.349     0.136     0.071
   07/10/2005 20:10:00      0.099     1.376     0.142     0.075
   07/10/2005 20:15:00      0.097     1.353     0.142     0.076
   07/10/2005 20:20:00      0.091     1.319     0.138     0.073
   07/10/2005 20:25:00      0.087     1.303     0.135     0.070
   07/10/2005 20:30:00      0.086     1.301     0.134     0.070
   07/10/2005 20:35:00      0.086     1.300     0.134     0.070
   07/10/2005 20:40:00      0.084     1.289     0.133     0.069
   07/10/2005 20:45:00      0.081     1.267     0.131     0.067
   07/10/2005 20:50:00      0.077     1.247     0.128     0.065
   07/10/2005 20:55:00      0.072     1.219     0.124     0.062
   07/10/2005 21:00:00      0.069     1.203     0.121     0.060
   07/10/2005 21:05:00      0.066     1.192     0.119     0.059
   07/10/2005 21:10:00      0.064     1.181     0.117     0.057
   07/10/2005 21:15:00      0.063     1.171     0.116     0.056
   07/10/2005 21:20:00      0.060     1.152     0.113     0.055
   07/10/2005 21:25:00      0.057     1.133     0.111     0.053
   07/10/2005 21:30:00      0.054     1.115     0.108     0.051
   07/10/2005 21:35:00      0.051     1.098     0.106     0.049
   07/10/2005 21:40:00      0.049     1.083     0.103     0.048
   07/10/2005 21:45:00      0.047     1.068     0.102     0.046
   07/10/2005 21:50:00      0.045     1.056     0.100     0.045
   07/10/2005 21:55:00      0.044     1.044     0.098     0.044
   07/10/2005 22:00:00      0.042     1.033     0.096     0.043
   07/10/2005 22:05:00      0.041     1.023     0.095     0.042
   07/10/2005 22:10:00      0.040     1.013     0.094     0.041
  
  
  <<< Link C22 >>>
  ----------------------------------------------------------------
                             Flow  Velocity     Depth  Capacity/
  Date        Time            CMS     m/sec    meters   Setting 
  ----------------------------------------------------------------
   07/10/2005 17:15:00      0.000     0.000     0.036     0.007
   07/10/2005 17:20:00      0.000     0.000     0.029     0.005
   07/10/2005 17:25:00      0.000     0.007     0.024     0.004
   07/10/2005 17:30:00      0.000     0.067     0.023     0.003
   07/10/2005 17:35:00      0.002     0.310     0.026     0.004
   07/10/2005 17:40:00      0.006     0.635     0.034     0.006
   07/10/2005 17:45:00      0.010     0.759     0.043     0.009
   07/10/2005 17:50:00      0.013     0.764     0.050     0.011
   07/10/2005 17:55:00      0.016     0.745     0.057     0.014
   07/10/2005 18:00:00      0.019     0.764     0.064     0.016
   07/10/2005 18:05:00      0.023     0.794     0.069     0.019
   07/10/2005 18:10:00      0.030     0.906     0.077     0.022
   07/10/2005 18:15:00      0.058     1.206     0.099     0.031
   07/10/2005 18:20:00      0.087     1.311     0.123     0.043
   07/10/2005 18:25:00      0.128     1.448     0.149     0.057
   07/10/2005 18:30:00      0.182     1.580     0.179     0.075
   07/10/2005 18:35:00      0.193     1.509     0.193     0.083
   07/10/2005 18:40:00      0.214     1.598     0.199     0.087
   07/10/2005 18:45:00      0.210     1.571     0.199     0.087
   07/10/2005 18:50:00      0.210     1.604     0.196     0.085
   07/10/2005 18:55:00      0.252     1.784     0.206     0.092
   07/10/2005 19:00:00      0.315     1.915     0.229     0.107
   07/10/2005 19:05:00      0.460     2.169     0.274     0.138
   07/10/2005 19:10:00      0.499     2.083     0.298     0.156
   07/10/2005 19:15:00      0.464     2.013     0.290     0.150
   07/10/2005 19:20:00      0.400     1.937     0.269     0.134
   07/10/2005 19:25:00      0.341     1.875     0.246     0.118
   07/10/2005 19:30:00      0.292     1.809     0.226     0.105
   07/10/2005 19:35:00      0.251     1.749     0.209     0.093
   07/10/2005 19:40:00      0.222     1.710     0.195     0.084
   07/10/2005 19:45:00      0.197     1.651     0.184     0.078
   07/10/2005 19:50:00      0.175     1.594     0.174     0.071
   07/10/2005 19:55:00      0.157     1.551     0.164     0.066
   07/10/2005 20:00:00      0.145     1.520     0.157     0.062
   07/10/2005 20:05:00      0.148     1.565     0.157     0.061
   07/10/2005 20:10:00      0.156     1.591     0.160     0.064
   07/10/2005 20:15:00      0.152     1.539     0.161     0.064
   07/10/2005 20:20:00      0.142     1.479     0.158     0.062
   07/10/2005 20:25:00      0.135     1.456     0.154     0.060
   07/10/2005 20:30:00      0.132     1.456     0.152     0.059
   07/10/2005 20:35:00      0.131     1.454     0.151     0.058
   07/10/2005 20:40:00      0.127     1.435     0.150     0.058
   07/10/2005 20:45:00      0.121     1.403     0.147     0.056
   07/10/2005 20:50:00      0.115     1.379     0.144     0.054
   07/10/2005 20:55:00      0.108     1.351     0.140     0.052
   07/10/2005 21:00:00      0.103     1.334     0.136     0.050
   07/10/2005 21:05:00      0.099     1.324     0.133     0.049
   07/10/2005 21:10:00      0.095     1.311     0.131     0.047
   07/10/2005 21:15:00      0.092     1.299     0.129     0.046
   07/10/2005 21:20:00      0.088     1.273     0.126     0.045
   07/10/2005 21:25:00      0.083     1.248     0.123     0.043
   07/10/2005 21:30:00      0.079     1.228     0.120     0.042
   07/10/2005 21:35:00      0.075     1.211     0.117     0.040
   07/10/2005 21:40:00      0.072     1.197     0.115     0.039
   07/10/2005 21:45:00      0.068     1.186     0.112     0.037
   07/10/2005 21:50:00      0.066     1.171     0.110     0.036
   07/10/2005 21:55:00      0.063     1.157     0.108     0.035
   07/10/2005 22:00:00      0.061     1.144     0.106     0.034
   07/10/2005 22:05:00      0.058     1.131     0.104     0.034
   07/10/2005 22:10:00      0.056     1.120     0.102     0.033
  

  Analysis begun on:  Wed Mar 27 18:37:20 2019
  Analysis ended on:  Wed Mar 27 18:37:20 2019
  Total elapsed time: < 1 sec