
  EPA STORM WATER MANAGEMENT MODEL - VERSION 5.1 (Build 5.1.012)
  --------------------------------------------------------------

  
  *************
  Element Count
  *************
  Number of rain gages ...... 1
  Number of subcatchments ... 15
  Number of nodes ........... 25
  Number of links ........... 24
  Number of pollutants ...... 0
  Number of land uses ....... 0
  
  
  ****************
  Raingage Summary
  ****************
                                                      Data       Recording
  Name                 Data Source                    Type       Interval 
  ------------------------------------------------------------------------
  1                    20050710                       VOLUME       5 min.
  
  
  ********************
  Subcatchment Summary
  ********************
  Name                       Area     Width   %Imperv    %Slope Rain Gage            Outlet              
  -----------------------------------------------------------------------------------------------------------
  S1                         2.21    400.00     80.00    0.0500 1                    J1                  
  S2                         7.25    400.00     50.00    0.0500 1                    J0                  
  S3                         1.53    400.00     30.00    0.0500 1                    J4                  
  S4                         6.18    400.00     20.00    0.0500 1                    J8                  
  S5                         9.28    400.00     20.00    0.0500 1                    J7                  
  S6                         6.98    400.00     60.00    0.0500 1                    J5                  
  S7                         3.28    400.00     40.00    0.0500 1                    J25                 
  S8                        10.68    400.00     70.00    0.0500 1                    J11                 
  S9                        16.43    400.00     45.50    0.0500 1                    J14                 
  S10                        2.73    400.00     40.00    0.0500 1                    J9                  
  S11                        9.27    700.00     40.00    0.0500 1                    J10                 
  S12                       10.58    400.00     60.00    0.0500 1                    J17                 
  S13                       10.08    500.00     60.00    0.0500 1                    J24                 
  S14                       11.53    400.00     40.00    0.0500 1                    J15                 
  S15                        8.92    400.00     50.00    0.0500 1                    J23                 
  
  
  ************
  Node Summary
  ************
                                           Invert      Max.    Ponded    External
  Name                 Type                 Elev.     Depth      Area    Inflow  
  -------------------------------------------------------------------------------
  J0                   JUNCTION             30.99      4.00       0.0
  J1                   JUNCTION             28.99      4.00       0.0
  J2                   JUNCTION             25.99      4.00       0.0
  J3                   JUNCTION             30.99      4.00       0.0
  J4                   JUNCTION             33.99      4.00       0.0
  J5                   JUNCTION             28.99      4.00       0.0
  J6                   JUNCTION             23.79      4.00       0.0
  J7                   JUNCTION             28.39      4.00       0.0
  J8                   JUNCTION             29.99      4.00       0.0
  J9                   JUNCTION             28.69      4.00       0.0
  J10                  JUNCTION             25.99      4.00       0.0
  J11                  JUNCTION             25.69      4.00       0.0
  J12                  JUNCTION             22.79      4.00       0.0
  J13                  JUNCTION             25.29      4.00       0.0
  J14                  JUNCTION             24.59      4.00       0.0
  J15                  JUNCTION             24.19      4.00       0.0
  J16                  JUNCTION             23.39      4.00       0.0
  J17                  JUNCTION             22.09      4.00       0.0
  J18                  JUNCTION             16.00      4.00       0.0
  J20                  JUNCTION             17.70      4.00       0.0
  J21                  JUNCTION             19.00      4.00       0.0
  J23                  JUNCTION             22.29      4.00       0.0
  J24                  JUNCTION             20.89      4.00       0.0
  J25                  JUNCTION             30.19      4.00       0.0
  J19                  OUTFALL              15.50      3.60       0.0
  
  
  ************
  Link Summary
  ************
  Name             From Node        To Node          Type            Length    %Slope Roughness
  ---------------------------------------------------------------------------------------------
  C0               J0               J2               CONDUIT          214.0    2.3371    0.0110
  C1               J1               J2               CONDUIT          152.0    1.9741    0.0110
  C2               J3               J2               CONDUIT          306.0    1.6342    0.0110
  C3               J4               J3               CONDUIT          128.0    2.3444    0.0110
  C4               J2               J6               CONDUIT          293.0    0.7509    0.0110
  C5               J5               J6               CONDUIT          246.0    2.1143    0.0110
  C6               J25              J11              CONDUIT          289.0    1.5573    0.0110
  C7               J6               J12              CONDUIT          335.0    0.2985    0.0110
  C8               J7               J6               CONDUIT          187.0    2.4606    0.0110
  C9               J8               J9               CONDUIT          119.0    1.0925    0.0110
  C10              J9               J16              CONDUIT          325.0    1.6310    0.0110
  C11              J10              J11              CONDUIT          227.0    0.1322    0.0110
  C12              J12              J18              CONDUIT          401.0    1.6935    0.0110
  C13              J17              J18              CONDUIT          267.0    2.2815    0.0110
  C14              J11              J13              CONDUIT          113.0    0.3540    0.0110
  C16              J13              J17              CONDUIT          409.0    0.7824    0.0110
  C17              J24              J20              CONDUIT          329.0    0.9697    0.0110
  C18              J20              J18              CONDUIT          215.0    0.7907    0.0110
  C19              J16              J21              CONDUIT          437.0    1.0046    0.0110
  C20              J21              J20              CONDUIT          295.0    0.4407    0.0110
  C21              J23              J21              CONDUIT          204.0    1.6130    0.0110
  C23              J18              J19              CONDUIT          161.0    0.3106    0.0110
  C24              J15              J16              CONDUIT          197.0    0.4061    0.0110
  C22              J14              J12              CONDUIT          280.0    0.6429    0.0110
  
  
  *********************
  Cross Section Summary
  *********************
                                        Full     Full     Hyd.     Max.   No. of     Full
  Conduit          Shape               Depth     Area     Rad.    Width  Barrels     Flow
  ---------------------------------------------------------------------------------------
  C0               CIRCULAR             0.70     0.38     0.17     0.70        1     1.67
  C1               CIRCULAR             0.60     0.28     0.15     0.60        1     1.02
  C2               CIRCULAR             0.80     0.50     0.20     0.80        1     2.00
  C3               CIRCULAR             0.60     0.28     0.15     0.60        1     1.11
  C4               CIRCULAR             1.20     1.13     0.30     1.20        1     3.99
  C5               CIRCULAR             0.70     0.38     0.17     0.70        1     1.59
  C6               CIRCULAR             0.80     0.50     0.20     0.80        1     1.95
  C7               CIRCULAR             2.40     4.52     0.60     2.40        1    15.99
  C8               CIRCULAR             0.70     0.38     0.17     0.70        1     1.72
  C9               CIRCULAR             0.70     0.38     0.17     0.70        1     1.14
  C10              CIRCULAR             1.00     0.79     0.25     1.00        1     3.62
  C11              CIRCULAR             1.50     1.77     0.38     1.50        1     3.04
  C12              CIRCULAR             3.00     7.07     0.75     3.00        1    69.04
  C13              CIRCULAR             1.50     1.77     0.38     1.50        1    12.62
  C14              CIRCULAR             1.50     1.77     0.38     1.50        1     4.97
  C16              CIRCULAR             1.35     1.43     0.34     1.35        1     5.58
  C17              CIRCULAR             0.80     0.50     0.20     0.80        1     1.54
  C18              CIRCULAR             3.00     7.07     0.75     3.00        1    47.18
  C19              CIRCULAR             3.00     7.07     0.75     3.00        1    53.18
  C20              CIRCULAR             3.00     7.07     0.75     3.00        1    35.22
  C21              CIRCULAR             1.00     0.79     0.25     1.00        1     3.60
  C23              CIRCULAR             3.60    10.18     0.90     3.60        1    48.08
  C24              CIRCULAR             1.10     0.95     0.28     1.10        1     2.33
  C22              CIRCULAR             1.40     1.54     0.35     1.40        1     5.57
  
  
  
  *********************************************************
  NOTE: The summary statistics displayed in this report are
  based on results found at every computational time step,  
  not just on results from each reporting time step.
  *********************************************************
  
  ****************
  Analysis Options
  ****************
  Flow Units ............... CMS
  Process Models:
    Rainfall/Runoff ........ YES
    RDII ................... NO
    Snowmelt ............... NO
    Groundwater ............ NO
    Flow Routing ........... YES
    Ponding Allowed ........ NO
    Water Quality .......... NO
  Infiltration Method ...... HORTON
  Flow Routing Method ...... DYNWAVE
  Starting Date ............ 07/10/2005 17:10:00
  Ending Date .............. 07/10/2005 22:15:00
  Antecedent Dry Days ...... 0.0
  Report Time Step ......... 00:05:00
  Wet Time Step ............ 00:05:00
  Dry Time Step ............ 01:00:00
  Routing Time Step ........ 30.00 sec
  Variable Time Step ....... YES
  Maximum Trials ........... 8
  Number of Threads ........ 1
  Head Tolerance ........... 0.005000 m
  
  
  **************************        Volume         Depth
  Runoff Quantity Continuity     hectare-m            mm
  **************************     ---------       -------
  Total Precipitation ......         3.520        30.100
  Evaporation Loss .........         0.000         0.000
  Infiltration Loss ........         0.415         3.546
  Surface Runoff ...........         2.052        17.545
  Final Storage ............         1.063         9.088
  Continuity Error (%) .....        -0.261
  
  
  **************************        Volume        Volume
  Flow Routing Continuity        hectare-m      10^6 ltr
  **************************     ---------     ---------
  Dry Weather Inflow .......         0.000         0.000
  Wet Weather Inflow .......         2.044        20.442
  Groundwater Inflow .......         0.000         0.000
  RDII Inflow ..............         0.000         0.000
  External Inflow ..........         0.000         0.000
  External Outflow .........         2.015        20.151
  Flooding Loss ............         0.000         0.000
  Evaporation Loss .........         0.000         0.000
  Exfiltration Loss ........         0.000         0.000
  Initial Stored Volume ....         0.021         0.207
  Final Stored Volume ......         0.042         0.425
  Continuity Error (%) .....         0.359
  
  
  ***************************
  Time-Step Critical Elements
  ***************************
  Link C14 (37.60%)
  
  
  ********************************
  Highest Flow Instability Indexes
  ********************************
  Link C1 (2)
  Link C3 (2)
  Link C4 (2)
  Link C8 (2)
  Link C7 (2)
  
  
  *************************
  Routing Time Step Summary
  *************************
  Minimum Time Step           :    20.18 sec
  Average Time Step           :    28.20 sec
  Maximum Time Step           :    30.00 sec
  Percent in Steady State     :     0.00
  Average Iterations per Step :     2.00
  Percent Not Converging      :     0.00
  
  
  ***************************
  Subcatchment Runoff Summary
  ***************************
  
  --------------------------------------------------------------------------------------------------------
                            Total      Total      Total      Total      Total       Total     Peak  Runoff
                           Precip      Runon       Evap      Infil     Runoff      Runoff   Runoff   Coeff
  Subcatchment                 mm         mm         mm         mm         mm    10^6 ltr      CMS
  --------------------------------------------------------------------------------------------------------
  S1                        30.10       0.00       0.00       1.35      26.49        0.59     0.20   0.880
  S2                        30.10       0.00       0.00       3.38      18.74        1.36     0.33   0.623
  S3                        30.10       0.00       0.00       4.74      19.51        0.30     0.09   0.648
  S4                        30.10       0.00       0.00       5.41      12.00        0.74     0.17   0.399
  S5                        30.10       0.00       0.00       5.41      10.43        0.97     0.21   0.347
  S6                        30.10       0.00       0.00       2.71      21.07        1.47     0.35   0.700
  S7                        30.10       0.00       0.00       4.06      19.10        0.63     0.17   0.634
  S8                        30.10       0.00       0.00       2.03      21.88        2.34     0.50   0.727
  S9                        30.10       0.00       0.00       3.69      15.05        2.47     0.50   0.500
  S10                       30.10       0.00       0.00       4.06      19.67        0.54     0.15   0.653
  S11                       30.10       0.00       0.00       4.06      17.48        1.62     0.41   0.581
  S12                       30.10       0.00       0.00       2.71      19.80        2.10     0.45   0.658
  S13                       30.10       0.00       0.00       2.71      20.65        2.08     0.48   0.686
  S14                       30.10       0.00       0.00       4.06      14.83        1.71     0.38   0.493
  S15                       30.10       0.00       0.00       3.38      18.08        1.61     0.37   0.601
  
  
  ******************
  Node Depth Summary
  ******************
  
  ---------------------------------------------------------------------------------
                                 Average  Maximum  Maximum  Time of Max    Reported
                                   Depth    Depth      HGL   Occurrence   Max Depth
  Node                 Type       Meters   Meters   Meters  days hr:min      Meters
  ---------------------------------------------------------------------------------
  J0                   JUNCTION     0.09     0.21    31.20     0  01:55        0.20
  J1                   JUNCTION     0.06     0.18    29.17     0  01:55        0.17
  J2                   JUNCTION     0.14     0.31    26.30     0  01:58        0.30
  J3                   JUNCTION     0.05     0.11    31.10     0  01:57        0.10
  J4                   JUNCTION     0.05     0.11    34.10     0  01:55        0.11
  J5                   JUNCTION     0.10     0.22    29.21     0  01:56        0.22
  J6                   JUNCTION     0.21     0.44    24.23     0  01:59        0.44
  J7                   JUNCTION     0.08     0.17    28.56     0  01:55        0.16
  J8                   JUNCTION     0.09     0.18    30.17     0  01:55        0.18
  J9                   JUNCTION     0.09     0.20    28.89     0  01:56        0.19
  J10                  JUNCTION     0.16     0.36    26.35     0  01:56        0.35
  J11                  JUNCTION     0.21     0.47    26.16     0  01:58        0.46
  J12                  JUNCTION     0.15     0.31    23.10     0  02:01        0.31
  J13                  JUNCTION     0.18     0.40    25.69     0  01:59        0.40
  J14                  JUNCTION     0.14     0.28    24.87     0  01:56        0.28
  J15                  JUNCTION     0.14     0.31    24.50     0  01:56        0.30
  J16                  JUNCTION     0.11     0.23    23.62     0  01:58        0.23
  J17                  JUNCTION     0.16     0.35    22.44     0  02:00        0.35
  J18                  JUNCTION     0.35     0.75    16.75     0  02:02        0.74
  J20                  JUNCTION     0.17     0.36    18.06     0  02:01        0.36
  J21                  JUNCTION     0.16     0.35    19.35     0  02:01        0.35
  J23                  JUNCTION     0.10     0.22    22.51     0  01:56        0.21
  J24                  JUNCTION     0.14     0.31    21.20     0  01:56        0.30
  J25                  JUNCTION     0.07     0.16    30.35     0  01:56        0.15
  J19                  OUTFALL      0.34     0.75    16.25     0  02:03        0.74
  
  
  *******************
  Node Inflow Summary
  *******************
  
  -------------------------------------------------------------------------------------------------
                                  Maximum  Maximum                  Lateral       Total        Flow
                                  Lateral    Total  Time of Max      Inflow      Inflow     Balance
                                   Inflow   Inflow   Occurrence      Volume      Volume       Error
  Node                 Type           CMS      CMS  days hr:min    10^6 ltr    10^6 ltr     Percent
  -------------------------------------------------------------------------------------------------
  J0                   JUNCTION     0.325    0.325     0  01:55        1.36        1.35      -0.460
  J1                   JUNCTION     0.196    0.196     0  01:55       0.585       0.584      -0.006
  J2                   JUNCTION     0.000    0.597     0  01:56           0        2.24      -0.153
  J3                   JUNCTION     0.000    0.086     0  01:55           0       0.298       0.506
  J4                   JUNCTION     0.086    0.086     0  01:55       0.298       0.298       0.006
  J5                   JUNCTION     0.355    0.355     0  01:55        1.47        1.47       0.127
  J6                   JUNCTION     0.000    1.119     0  01:57           0        4.67       0.279
  J7                   JUNCTION     0.215    0.215     0  01:55       0.962       0.962       0.183
  J8                   JUNCTION     0.166    0.166     0  01:55       0.737       0.737       0.152
  J9                   JUNCTION     0.151    0.314     0  01:55       0.536        1.27       0.336
  J10                  JUNCTION     0.406    0.406     0  01:55        1.61        1.61       0.356
  J11                  JUNCTION     0.496    1.052     0  01:56        2.33        4.56       0.503
  J12                  JUNCTION     0.000    1.605     0  02:00           0        7.11      -0.018
  J13                  JUNCTION     0.000    1.038     0  01:58           0        4.54       0.329
  J14                  JUNCTION     0.498    0.498     0  02:00        2.46        2.46       0.271
  J15                  JUNCTION     0.378    0.378     0  01:55         1.7         1.7       0.218
  J16                  JUNCTION     0.000    0.687     0  01:56           0        2.97       0.661
  J17                  JUNCTION     0.453    1.487     0  01:59        2.09        6.61       0.272
  J18                  JUNCTION     0.000    4.520     0  02:01           0        20.3       0.546
  J20                  JUNCTION     0.000    1.464     0  02:00           0        6.58       0.478
  J21                  JUNCTION     0.000    1.021     0  01:58           0        4.55       0.875
  J23                  JUNCTION     0.369    0.369     0  01:55        1.61        1.61       0.105
  J24                  JUNCTION     0.484    0.484     0  01:55        2.08        2.07       0.169
  J25                  JUNCTION     0.170    0.170     0  01:55       0.625       0.624       0.193
  J19                  OUTFALL      0.000    4.519     0  02:03           0        20.2       0.000
  
  
  **********************
  Node Surcharge Summary
  **********************
  
  No nodes were surcharged.
  
  
  *********************
  Node Flooding Summary
  *********************
  
  No nodes were flooded.
  
  
  ***********************
  Outfall Loading Summary
  ***********************
  
  -----------------------------------------------------------
                         Flow       Avg       Max       Total
                         Freq      Flow      Flow      Volume
  Outfall Node           Pcnt       CMS       CMS    10^6 ltr
  -----------------------------------------------------------
  J19                  100.00     1.204     4.519      20.151
  -----------------------------------------------------------
  System               100.00     1.204     4.519      20.151
  
  
  ********************
  Link Flow Summary
  ********************
  
  -----------------------------------------------------------------------------
                                 Maximum  Time of Max   Maximum    Max/    Max/
                                  |Flow|   Occurrence   |Veloc|    Full    Full
  Link                 Type          CMS  days hr:min     m/sec    Flow   Depth
  -----------------------------------------------------------------------------
  C0                   CONDUIT     0.325     0  01:56      4.43    0.19    0.37
  C1                   CONDUIT     0.195     0  01:55      1.90    0.19    0.40
  C2                   CONDUIT     0.081     0  01:57      0.79    0.04    0.26
  C3                   CONDUIT     0.086     0  01:55      2.39    0.08    0.18
  C4                   CONDUIT     0.572     0  01:58      1.92    0.14    0.31
  C5                   CONDUIT     0.354     0  01:56      2.09    0.22    0.47
  C6                   CONDUIT     0.166     0  01:56      0.94    0.09    0.39
  C7                   CONDUIT     1.107     0  02:00      2.44    0.07    0.16
  C8                   CONDUIT     0.214     0  01:56      1.44    0.12    0.43
  C9                   CONDUIT     0.165     0  01:55      1.99    0.14    0.27
  C10                  CONDUIT     0.308     0  01:56      2.53    0.08    0.21
  C11                  CONDUIT     0.392     0  01:57      1.00    0.13    0.28
  C12                  CONDUIT     1.593     0  02:01      2.59    0.02    0.18
  C13                  CONDUIT     1.484     0  02:00      2.61    0.12    0.36
  C14                  CONDUIT     1.038     0  01:58      2.46    0.21    0.29
  C16                  CONDUIT     1.038     0  02:00      3.20    0.19    0.28
  C17                  CONDUIT     0.480     0  01:56      2.59    0.31    0.41
  C18                  CONDUIT     1.453     0  02:02      1.62    0.03    0.18
  C19                  CONDUIT     0.661     0  01:58      1.92    0.01    0.10
  C20                  CONDUIT     0.998     0  02:01      2.13    0.03    0.12
  C21                  CONDUIT     0.369     0  01:56      2.21    0.10    0.28
  C23                  CONDUIT     4.519     0  02:03      3.66    0.09    0.21
  C24                  CONDUIT     0.380     0  01:56      2.11    0.16    0.24
  C22                  CONDUIT     0.501     0  01:56      2.21    0.09    0.21
  
  
  ***************************
  Flow Classification Summary
  ***************************
  
  -------------------------------------------------------------------------------------
                      Adjusted    ---------- Fraction of Time in Flow Class ---------- 
                       /Actual         Up    Down  Sub   Sup   Up    Down  Norm  Inlet 
  Conduit               Length    Dry  Dry   Dry   Crit  Crit  Crit  Crit  Ltd   Ctrl  
  -------------------------------------------------------------------------------------
  C0                      1.00   0.00  0.00  0.00  0.06  0.94  0.00  0.00  1.00  0.00
  C1                      1.00   0.00  0.02  0.00  0.58  0.40  0.00  0.00  0.98  0.00
  C2                      1.00   0.00  0.02  0.00  0.98  0.00  0.00  0.00  0.98  0.00
  C3                      1.00   0.02  0.00  0.00  0.01  0.97  0.00  0.00  0.79  0.00
  C4                      1.00   0.00  0.00  0.00  0.51  0.49  0.00  0.00  1.00  0.00
  C5                      1.00   0.00  0.02  0.00  0.24  0.73  0.00  0.00  0.98  0.00
  C6                      1.00   0.02  0.00  0.00  0.94  0.04  0.00  0.00  0.98  0.00
  C7                      1.00   0.00  0.00  0.00  0.00  1.00  0.00  0.00  0.00  0.00
  C8                      1.00   0.00  0.02  0.00  0.72  0.26  0.00  0.00  0.98  0.00
  C9                      1.00   0.02  0.00  0.00  0.03  0.96  0.00  0.00  0.78  0.00
  C10                     1.00   0.02  0.00  0.00  0.01  0.97  0.00  0.00  0.88  0.00
  C11                     1.00   0.02  0.00  0.00  0.98  0.00  0.00  0.00  0.89  0.00
  C12                     1.00   0.00  0.00  0.00  0.90  0.10  0.00  0.00  1.00  0.00
  C13                     1.00   0.00  0.02  0.00  0.08  0.89  0.00  0.00  0.98  0.00
  C14                     1.00   0.02  0.00  0.00  0.05  0.93  0.00  0.00  0.16  0.00
  C16                     1.00   0.02  0.00  0.00  0.07  0.91  0.00  0.00  0.06  0.00
  C17                     1.00   0.02  0.00  0.00  0.02  0.96  0.00  0.00  0.84  0.00
  C18                     1.00   0.00  0.02  0.00  0.98  0.00  0.00  0.00  0.98  0.00
  C19                     1.00   0.02  0.00  0.00  0.06  0.92  0.00  0.00  0.98  0.00
  C20                     1.00   0.02  0.00  0.00  0.08  0.90  0.00  0.00  0.72  0.00
  C21                     1.00   0.02  0.00  0.00  0.02  0.96  0.00  0.00  0.91  0.00
  C23                     1.00   0.00  0.00  0.00  0.00  1.00  0.00  0.00  0.38  0.00
  C24                     1.00   0.02  0.00  0.00  0.04  0.94  0.00  0.00  0.00  0.00
  C22                     1.00   0.00  0.02  0.00  0.06  0.92  0.00  0.00  0.85  0.00
  
  
  *************************
  Conduit Surcharge Summary
  *************************
  
  No conduits were surcharged.
  
  
  ********************
  Subcatchment Results
  ********************
  
  <<< Subcatchment S1 >>>
  ---------------------------------------------------
  Date        Time        Precip.    Losses    Runoff
                            mm/hr     mm/hr       CMS
  ---------------------------------------------------
   07/10/2005 17:15:00      1.200     0.130    0.0000
   07/10/2005 17:20:00      3.600     0.381    0.0000
   07/10/2005 17:25:00      7.200     0.712    0.0003
   07/10/2005 17:30:00     10.800     0.932    0.0013
   07/10/2005 17:35:00      6.000     0.422    0.0044
   07/10/2005 17:40:00      3.600     0.228    0.0077
   07/10/2005 17:45:00      2.400     0.143    0.0092
   07/10/2005 17:50:00      3.600     0.206    0.0095
   07/10/2005 17:55:00      3.600     0.193    0.0109
   07/10/2005 18:00:00      3.600     0.182    0.0122
   07/10/2005 18:05:00      8.400     0.400    0.0133
   07/10/2005 18:10:00     21.600     0.889    0.0195
   07/10/2005 18:15:00     12.000     0.480    0.0438
   07/10/2005 18:20:00     24.000     0.960    0.0492
   07/10/2005 18:25:00     24.000     0.960    0.0749
   07/10/2005 18:30:00      7.200     0.288    0.0942
   07/10/2005 18:35:00     18.000     0.720    0.0739
   07/10/2005 18:40:00      4.800     0.192    0.0824
   07/10/2005 18:45:00     10.800     0.432    0.0634
   07/10/2005 18:50:00     25.200     1.008    0.0625
   07/10/2005 18:55:00     28.800     1.152    0.0894
   07/10/2005 19:00:00     54.000     2.160    0.1165
   07/10/2005 19:05:00     21.600     0.864    0.1960
   07/10/2005 19:10:00     10.800     0.432    0.1633
   07/10/2005 19:15:00      2.400     0.096    0.1224
   07/10/2005 19:20:00      1.200     0.048    0.0839
   07/10/2005 19:25:00      0.000     0.000    0.0601
   07/10/2005 19:30:00      0.000     0.000    0.0438
   07/10/2005 19:35:00      1.200     0.048    0.0333
   07/10/2005 19:40:00      0.000     0.000    0.0277
   07/10/2005 19:45:00      0.000     0.000    0.0222
   07/10/2005 19:50:00      0.000     0.000    0.0182
   07/10/2005 19:55:00      1.200     0.048    0.0151
   07/10/2005 20:00:00      8.400     0.336    0.0139
   07/10/2005 20:05:00      7.200     0.288    0.0208
   07/10/2005 20:10:00      2.400     0.096    0.0256
   07/10/2005 20:15:00      1.200     0.048    0.0233
   07/10/2005 20:20:00      2.400     0.096    0.0201
   07/10/2005 20:25:00      3.600     0.144    0.0190
   07/10/2005 20:30:00      3.600     0.144    0.0196
   07/10/2005 20:35:00      2.400     0.096    0.0201
   07/10/2005 20:40:00      1.200     0.048    0.0190
   07/10/2005 20:45:00      1.200     0.048    0.0168
   07/10/2005 20:50:00      0.000     0.000    0.0151
   07/10/2005 20:55:00      1.200     0.048    0.0125
   07/10/2005 21:00:00      1.200     0.048    0.0117
   07/10/2005 21:05:00      1.200     0.048    0.0111
   07/10/2005 21:10:00      1.200     0.048    0.0105
   07/10/2005 21:15:00      0.000     0.000    0.0100
   07/10/2005 21:20:00      0.000     0.000    0.0086
   07/10/2005 21:25:00      0.000     0.000    0.0074
   07/10/2005 21:30:00      0.000     0.000    0.0065
   07/10/2005 21:35:00      0.000     0.000    0.0057
   07/10/2005 21:40:00      0.000     0.000    0.0051
   07/10/2005 21:45:00      0.000     0.000    0.0045
   07/10/2005 21:50:00      0.000     0.000    0.0041
   07/10/2005 21:55:00      0.000     0.000    0.0037
   07/10/2005 22:00:00      0.000     0.000    0.0033
   07/10/2005 22:05:00      0.000     0.000    0.0030
   07/10/2005 22:10:00      0.000     0.000    0.0028
  
  
  <<< Subcatchment S2 >>>
  ---------------------------------------------------
  Date        Time        Precip.    Losses    Runoff
                            mm/hr     mm/hr       CMS
  ---------------------------------------------------
   07/10/2005 17:15:00      1.200     0.324    0.0000
   07/10/2005 17:20:00      3.600     0.952    0.0000
   07/10/2005 17:25:00      7.200     1.779    0.0000
   07/10/2005 17:30:00     10.800     2.329    0.0014
   07/10/2005 17:35:00      6.000     1.054    0.0048
   07/10/2005 17:40:00      3.600     0.569    0.0087
   07/10/2005 17:45:00      2.400     0.357    0.0111
   07/10/2005 17:50:00      3.600     0.514    0.0122
   07/10/2005 17:55:00      3.600     0.484    0.0147
   07/10/2005 18:00:00      3.600     0.455    0.0170
   07/10/2005 18:05:00      8.400     1.000    0.0193
   07/10/2005 18:10:00     21.600     2.223    0.0279
   07/10/2005 18:15:00     12.000     1.200    0.0593
   07/10/2005 18:20:00     24.000     2.400    0.0717
   07/10/2005 18:25:00     24.000     2.400    0.1102
   07/10/2005 18:30:00      7.200     0.720    0.1451
   07/10/2005 18:35:00     18.000     1.800    0.1291
   07/10/2005 18:40:00      4.800     0.480    0.1456
   07/10/2005 18:45:00     10.800     1.080    0.1244
   07/10/2005 18:50:00     25.200     2.520    0.1241
   07/10/2005 18:55:00     28.800     2.880    0.1626
   07/10/2005 19:00:00     54.000     5.400    0.2056
   07/10/2005 19:05:00     21.600     2.160    0.3253
   07/10/2005 19:10:00     10.800     1.080    0.3048
   07/10/2005 19:15:00      2.400     0.240    0.2572
   07/10/2005 19:20:00      1.200     0.120    0.2013
   07/10/2005 19:25:00      0.000     0.000    0.1612
   07/10/2005 19:30:00      0.000     0.000    0.1307
   07/10/2005 19:35:00      1.200     0.120    0.1090
   07/10/2005 19:40:00      0.000     0.000    0.0956
   07/10/2005 19:45:00      0.000     0.000    0.0829
   07/10/2005 19:50:00      0.000     0.000    0.0730
   07/10/2005 19:55:00      1.200     0.120    0.0652
   07/10/2005 20:00:00      8.400     0.840    0.0610
   07/10/2005 20:05:00      7.200     0.720    0.0703
   07/10/2005 20:10:00      2.400     0.240    0.0764
   07/10/2005 20:15:00      1.200     0.120    0.0725
   07/10/2005 20:20:00      2.400     0.240    0.0670
   07/10/2005 20:25:00      3.600     0.360    0.0646
   07/10/2005 20:30:00      3.600     0.360    0.0648
   07/10/2005 20:35:00      2.400     0.240    0.0649
   07/10/2005 20:40:00      1.200     0.120    0.0628
   07/10/2005 20:45:00      1.200     0.120    0.0590
   07/10/2005 20:50:00      0.000     0.000    0.0558
   07/10/2005 20:55:00      1.200     0.120    0.0512
   07/10/2005 21:00:00      1.200     0.120    0.0491
   07/10/2005 21:05:00      1.200     0.120    0.0473
   07/10/2005 21:10:00      1.200     0.120    0.0457
   07/10/2005 21:15:00      0.000     0.000    0.0443
   07/10/2005 21:20:00      0.000     0.000    0.0413
   07/10/2005 21:25:00      0.000     0.000    0.0387
   07/10/2005 21:30:00      0.000     0.000    0.0365
   07/10/2005 21:35:00      0.000     0.000    0.0345
   07/10/2005 21:40:00      0.000     0.000    0.0327
   07/10/2005 21:45:00      0.000     0.000    0.0311
   07/10/2005 21:50:00      0.000     0.000    0.0296
   07/10/2005 21:55:00      0.000     0.000    0.0283
   07/10/2005 22:00:00      0.000     0.000    0.0271
   07/10/2005 22:05:00      0.000     0.000    0.0260
   07/10/2005 22:10:00      0.000     0.000    0.0250
  
  
  <<< Subcatchment S3 >>>
  ---------------------------------------------------
  Date        Time        Precip.    Losses    Runoff
                            mm/hr     mm/hr       CMS
  ---------------------------------------------------
   07/10/2005 17:15:00      1.200     0.454    0.0000
   07/10/2005 17:20:00      3.600     1.332    0.0000
   07/10/2005 17:25:00      7.200     2.491    0.0003
   07/10/2005 17:30:00     10.800     3.261    0.0010
   07/10/2005 17:35:00      6.000     1.476    0.0031
   07/10/2005 17:40:00      3.600     0.797    0.0046
   07/10/2005 17:45:00      2.400     0.499    0.0045
   07/10/2005 17:50:00      3.600     0.720    0.0039
   07/10/2005 17:55:00      3.600     0.677    0.0042
   07/10/2005 18:00:00      3.600     0.637    0.0044
   07/10/2005 18:05:00      8.400     1.400    0.0045
   07/10/2005 18:10:00     21.600     3.113    0.0075
   07/10/2005 18:15:00     12.000     1.680    0.0196
   07/10/2005 18:20:00     24.000     3.360    0.0175
   07/10/2005 18:25:00     24.000     3.360    0.0284
   07/10/2005 18:30:00      7.200     1.008    0.0339
   07/10/2005 18:35:00     18.000     2.520    0.0212
   07/10/2005 18:40:00      4.800     0.672    0.0276
   07/10/2005 18:45:00     10.800     1.512    0.0191
   07/10/2005 18:50:00     25.200     3.528    0.0214
   07/10/2005 18:55:00     28.800     4.032    0.0371
   07/10/2005 19:00:00     54.000     7.560    0.0492
   07/10/2005 19:05:00     21.600     3.024    0.0862
   07/10/2005 19:10:00     10.800     1.512    0.0629
   07/10/2005 19:15:00      2.400     0.336    0.0478
   07/10/2005 19:20:00      1.200     0.168    0.0354
   07/10/2005 19:25:00      0.000     0.000    0.0290
   07/10/2005 19:30:00      0.000     0.000    0.0246
   07/10/2005 19:35:00      1.200     0.168    0.0216
   07/10/2005 19:40:00      0.000     0.000    0.0201
   07/10/2005 19:45:00      0.000     0.000    0.0181
   07/10/2005 19:50:00      0.000     0.000    0.0165
   07/10/2005 19:55:00      1.200     0.168    0.0151
   07/10/2005 20:00:00      8.400     1.176    0.0145
   07/10/2005 20:05:00      7.200     1.008    0.0186
   07/10/2005 20:10:00      2.400     0.336    0.0210
   07/10/2005 20:15:00      1.200     0.168    0.0186
   07/10/2005 20:20:00      2.400     0.336    0.0164
   07/10/2005 20:25:00      3.600     0.504    0.0157
   07/10/2005 20:30:00      3.600     0.504    0.0160
   07/10/2005 20:35:00      2.400     0.336    0.0161
   07/10/2005 20:40:00      1.200     0.168    0.0152
   07/10/2005 20:45:00      1.200     0.168    0.0138
   07/10/2005 20:50:00      0.000     0.000    0.0128
   07/10/2005 20:55:00      1.200     0.168    0.0113
   07/10/2005 21:00:00      1.200     0.168    0.0109
   07/10/2005 21:05:00      1.200     0.168    0.0105
   07/10/2005 21:10:00      1.200     0.168    0.0101
   07/10/2005 21:15:00      0.000     0.000    0.0098
   07/10/2005 21:20:00      0.000     0.000    0.0088
   07/10/2005 21:25:00      0.000     0.000    0.0081
   07/10/2005 21:30:00      0.000     0.000    0.0075
   07/10/2005 21:35:00      0.000     0.000    0.0070
   07/10/2005 21:40:00      0.000     0.000    0.0066
   07/10/2005 21:45:00      0.000     0.000    0.0062
   07/10/2005 21:50:00      0.000     0.000    0.0058
   07/10/2005 21:55:00      0.000     0.000    0.0055
   07/10/2005 22:00:00      0.000     0.000    0.0052
   07/10/2005 22:05:00      0.000     0.000    0.0050
   07/10/2005 22:10:00      0.000     0.000    0.0047
  
  
  <<< Subcatchment S4 >>>
  ---------------------------------------------------
  Date        Time        Precip.    Losses    Runoff
                            mm/hr     mm/hr       CMS
  ---------------------------------------------------
   07/10/2005 17:15:00      1.200     0.519    0.0000
   07/10/2005 17:20:00      3.600     1.522    0.0000
   07/10/2005 17:25:00      7.200     2.847    0.0000
   07/10/2005 17:30:00     10.800     3.726    0.0013
   07/10/2005 17:35:00      6.000     1.687    0.0041
   07/10/2005 17:40:00      3.600     0.911    0.0070
   07/10/2005 17:45:00      2.400     0.571    0.0080
   07/10/2005 17:50:00      3.600     0.822    0.0079
   07/10/2005 17:55:00      3.600     0.774    0.0089
   07/10/2005 18:00:00      3.600     0.728    0.0098
   07/10/2005 18:05:00      8.400     1.600    0.0104
   07/10/2005 18:10:00     21.600     3.557    0.0156
   07/10/2005 18:15:00     12.000     1.920    0.0364
   07/10/2005 18:20:00     24.000     3.840    0.0389
   07/10/2005 18:25:00     24.000     3.840    0.0594
   07/10/2005 18:30:00      7.200     1.152    0.0736
   07/10/2005 18:35:00     18.000     2.880    0.0546
   07/10/2005 18:40:00      4.800     0.768    0.0625
   07/10/2005 18:45:00     10.800     1.728    0.0471
   07/10/2005 18:50:00     25.200     4.032    0.0480
   07/10/2005 18:55:00     28.800     4.608    0.0728
   07/10/2005 19:00:00     54.000     8.640    0.0970
   07/10/2005 19:05:00     21.600     3.456    0.1663
   07/10/2005 19:10:00     10.800     1.728    0.1372
   07/10/2005 19:15:00      2.400     0.384    0.1067
   07/10/2005 19:20:00      1.200     0.192    0.0794
   07/10/2005 19:25:00      0.000     0.000    0.0641
   07/10/2005 19:30:00      0.000     0.000    0.0539
   07/10/2005 19:35:00      1.200     0.192    0.0476
   07/10/2005 19:40:00      0.000     0.000    0.0447
   07/10/2005 19:45:00      0.000     0.000    0.0413
   07/10/2005 19:50:00      0.000     0.000    0.0388
   07/10/2005 19:55:00      1.200     0.192    0.0368
   07/10/2005 20:00:00      8.400     1.344    0.0362
   07/10/2005 20:05:00      7.200     1.152    0.0432
   07/10/2005 20:10:00      2.400     0.384    0.0482
   07/10/2005 20:15:00      1.200     0.192    0.0463
   07/10/2005 20:20:00      2.400     0.384    0.0436
   07/10/2005 20:25:00      3.600     0.576    0.0429
   07/10/2005 20:30:00      3.600     0.576    0.0437
   07/10/2005 20:35:00      2.400     0.384    0.0444
   07/10/2005 20:40:00      1.200     0.192    0.0435
   07/10/2005 20:45:00      1.200     0.192    0.0415
   07/10/2005 20:50:00      0.000     0.000    0.0400
   07/10/2005 20:55:00      1.200     0.192    0.0376
   07/10/2005 21:00:00      1.200     0.192    0.0368
   07/10/2005 21:05:00      1.200     0.192    0.0361
   07/10/2005 21:10:00      1.200     0.192    0.0355
   07/10/2005 21:15:00      0.000     0.000    0.0349
   07/10/2005 21:20:00      0.000     0.000    0.0333
   07/10/2005 21:25:00      0.000     0.000    0.0320
   07/10/2005 21:30:00      0.000     0.000    0.0309
   07/10/2005 21:35:00      0.000     0.000    0.0299
   07/10/2005 21:40:00      0.000     0.000    0.0290
   07/10/2005 21:45:00      0.000     0.000    0.0281
   07/10/2005 21:50:00      0.000     0.000    0.0274
   07/10/2005 21:55:00      0.000     0.000    0.0267
   07/10/2005 22:00:00      0.000     0.000    0.0260
   07/10/2005 22:05:00      0.000     0.000    0.0254
   07/10/2005 22:10:00      0.000     0.000    0.0248
  
  
  <<< Subcatchment S5 >>>
  ---------------------------------------------------
  Date        Time        Precip.    Losses    Runoff
                            mm/hr     mm/hr       CMS
  ---------------------------------------------------
   07/10/2005 17:15:00      1.200     0.519    0.0000
   07/10/2005 17:20:00      3.600     1.522    0.0000
   07/10/2005 17:25:00      7.200     2.847    0.0000
   07/10/2005 17:30:00     10.800     3.726    0.0013
   07/10/2005 17:35:00      6.000     1.687    0.0044
   07/10/2005 17:40:00      3.600     0.911    0.0078
   07/10/2005 17:45:00      2.400     0.571    0.0093
   07/10/2005 17:50:00      3.600     0.822    0.0097
   07/10/2005 17:55:00      3.600     0.774    0.0112
   07/10/2005 18:00:00      3.600     0.728    0.0126
   07/10/2005 18:05:00      8.400     1.600    0.0137
   07/10/2005 18:10:00     21.600     3.557    0.0201
   07/10/2005 18:15:00     12.000     1.920    0.0449
   07/10/2005 18:20:00     24.000     3.840    0.0507
   07/10/2005 18:25:00     24.000     3.840    0.0773
   07/10/2005 18:30:00      7.200     1.152    0.0979
   07/10/2005 18:35:00     18.000     2.880    0.0781
   07/10/2005 18:40:00      4.800     0.768    0.0878
   07/10/2005 18:45:00     10.800     1.728    0.0692
   07/10/2005 18:50:00     25.200     4.032    0.0691
   07/10/2005 18:55:00     28.800     4.608    0.0982
   07/10/2005 19:00:00     54.000     8.640    0.1285
   07/10/2005 19:05:00     21.600     3.456    0.2149
   07/10/2005 19:10:00     10.800     1.728    0.1869
   07/10/2005 19:15:00      2.400     0.384    0.1489
   07/10/2005 19:20:00      1.200     0.192    0.1118
   07/10/2005 19:25:00      0.000     0.000    0.0890
   07/10/2005 19:30:00      0.000     0.000    0.0732
   07/10/2005 19:35:00      1.200     0.192    0.0631
   07/10/2005 19:40:00      0.000     0.000    0.0580
   07/10/2005 19:45:00      0.000     0.000    0.0526
   07/10/2005 19:50:00      0.000     0.000    0.0486
   07/10/2005 19:55:00      1.200     0.192    0.0456
   07/10/2005 20:00:00      8.400     1.344    0.0445
   07/10/2005 20:05:00      7.200     1.152    0.0528
   07/10/2005 20:10:00      2.400     0.384    0.0587
   07/10/2005 20:15:00      1.200     0.192    0.0567
   07/10/2005 20:20:00      2.400     0.384    0.0536
   07/10/2005 20:25:00      3.600     0.576    0.0528
   07/10/2005 20:30:00      3.600     0.576    0.0538
   07/10/2005 20:35:00      2.400     0.384    0.0547
   07/10/2005 20:40:00      1.200     0.192    0.0538
   07/10/2005 20:45:00      1.200     0.192    0.0516
   07/10/2005 20:50:00      0.000     0.000    0.0498
   07/10/2005 20:55:00      1.200     0.192    0.0469
   07/10/2005 21:00:00      1.200     0.192    0.0460
   07/10/2005 21:05:00      1.200     0.192    0.0452
   07/10/2005 21:10:00      1.200     0.192    0.0445
   07/10/2005 21:15:00      0.000     0.000    0.0439
   07/10/2005 21:20:00      0.000     0.000    0.0420
   07/10/2005 21:25:00      0.000     0.000    0.0405
   07/10/2005 21:30:00      0.000     0.000    0.0391
   07/10/2005 21:35:00      0.000     0.000    0.0380
   07/10/2005 21:40:00      0.000     0.000    0.0369
   07/10/2005 21:45:00      0.000     0.000    0.0360
   07/10/2005 21:50:00      0.000     0.000    0.0351
   07/10/2005 21:55:00      0.000     0.000    0.0343
   07/10/2005 22:00:00      0.000     0.000    0.0336
   07/10/2005 22:05:00      0.000     0.000    0.0329
   07/10/2005 22:10:00      0.000     0.000    0.0322
  
  
  <<< Subcatchment S6 >>>
  ---------------------------------------------------
  Date        Time        Precip.    Losses    Runoff
                            mm/hr     mm/hr       CMS
  ---------------------------------------------------
   07/10/2005 17:15:00      1.200     0.259    0.0000
   07/10/2005 17:20:00      3.600     0.761    0.0000
   07/10/2005 17:25:00      7.200     1.423    0.0000
   07/10/2005 17:30:00     10.800     1.863    0.0014
   07/10/2005 17:35:00      6.000     0.844    0.0049
   07/10/2005 17:40:00      3.600     0.455    0.0089
   07/10/2005 17:45:00      2.400     0.285    0.0114
   07/10/2005 17:50:00      3.600     0.411    0.0127
   07/10/2005 17:55:00      3.600     0.387    0.0153
   07/10/2005 18:00:00      3.600     0.364    0.0179
   07/10/2005 18:05:00      8.400     0.800    0.0204
   07/10/2005 18:10:00     21.600     1.779    0.0294
   07/10/2005 18:15:00     12.000     0.960    0.0623
   07/10/2005 18:20:00     24.000     1.920    0.0761
   07/10/2005 18:25:00     24.000     1.920    0.1173
   07/10/2005 18:30:00      7.200     0.576    0.1556
   07/10/2005 18:35:00     18.000     1.440    0.1413
   07/10/2005 18:40:00      4.800     0.384    0.1601
   07/10/2005 18:45:00     10.800     0.864    0.1391
   07/10/2005 18:50:00     25.200     2.016    0.1393
   07/10/2005 18:55:00     28.800     2.304    0.1803
   07/10/2005 19:00:00     54.000     4.320    0.2267
   07/10/2005 19:05:00     21.600     1.728    0.3545
   07/10/2005 19:10:00     10.800     0.864    0.3368
   07/10/2005 19:15:00      2.400     0.192    0.2881
   07/10/2005 19:20:00      1.200     0.096    0.2284
   07/10/2005 19:25:00      0.000     0.000    0.1842
   07/10/2005 19:30:00      0.000     0.000    0.1497
   07/10/2005 19:35:00      1.200     0.096    0.1247
   07/10/2005 19:40:00      0.000     0.000    0.1087
   07/10/2005 19:45:00      0.000     0.000    0.0937
   07/10/2005 19:50:00      0.000     0.000    0.0819
   07/10/2005 19:55:00      1.200     0.096    0.0725
   07/10/2005 20:00:00      8.400     0.672    0.0671
   07/10/2005 20:05:00      7.200     0.576    0.0764
   07/10/2005 20:10:00      2.400     0.192    0.0824
   07/10/2005 20:15:00      1.200     0.096    0.0777
   07/10/2005 20:20:00      2.400     0.192    0.0714
   07/10/2005 20:25:00      3.600     0.288    0.0684
   07/10/2005 20:30:00      3.600     0.288    0.0682
   07/10/2005 20:35:00      2.400     0.192    0.0680
   07/10/2005 20:40:00      1.200     0.096    0.0655
   07/10/2005 20:45:00      1.200     0.096    0.0612
   07/10/2005 20:50:00      0.000     0.000    0.0575
   07/10/2005 20:55:00      1.200     0.096    0.0523
   07/10/2005 21:00:00      1.200     0.096    0.0499
   07/10/2005 21:05:00      1.200     0.096    0.0478
   07/10/2005 21:10:00      1.200     0.096    0.0459
   07/10/2005 21:15:00      0.000     0.000    0.0442
   07/10/2005 21:20:00      0.000     0.000    0.0409
   07/10/2005 21:25:00      0.000     0.000    0.0380
   07/10/2005 21:30:00      0.000     0.000    0.0355
   07/10/2005 21:35:00      0.000     0.000    0.0333
   07/10/2005 21:40:00      0.000     0.000    0.0313
   07/10/2005 21:45:00      0.000     0.000    0.0295
   07/10/2005 21:50:00      0.000     0.000    0.0279
   07/10/2005 21:55:00      0.000     0.000    0.0264
   07/10/2005 22:00:00      0.000     0.000    0.0251
   07/10/2005 22:05:00      0.000     0.000    0.0239
   07/10/2005 22:10:00      0.000     0.000    0.0228
  
  
  <<< Subcatchment S7 >>>
  ---------------------------------------------------
  Date        Time        Precip.    Losses    Runoff
                            mm/hr     mm/hr       CMS
  ---------------------------------------------------
   07/10/2005 17:15:00      1.200     0.389    0.0000
   07/10/2005 17:20:00      3.600     1.142    0.0000
   07/10/2005 17:25:00      7.200     2.135    0.0003
   07/10/2005 17:30:00     10.800     2.795    0.0013
   07/10/2005 17:35:00      6.000     1.265    0.0042
   07/10/2005 17:40:00      3.600     0.683    0.0071
   07/10/2005 17:45:00      2.400     0.428    0.0082
   07/10/2005 17:50:00      3.600     0.617    0.0082
   07/10/2005 17:55:00      3.600     0.580    0.0093
   07/10/2005 18:00:00      3.600     0.546    0.0102
   07/10/2005 18:05:00      8.400     1.200    0.0109
   07/10/2005 18:10:00     21.600     2.668    0.0162
   07/10/2005 18:15:00     12.000     1.440    0.0376
   07/10/2005 18:20:00     24.000     2.880    0.0405
   07/10/2005 18:25:00     24.000     2.880    0.0619
   07/10/2005 18:30:00      7.200     0.864    0.0768
   07/10/2005 18:35:00     18.000     2.160    0.0575
   07/10/2005 18:40:00      4.800     0.576    0.0654
   07/10/2005 18:45:00     10.800     1.296    0.0493
   07/10/2005 18:50:00     25.200     3.024    0.0499
   07/10/2005 18:55:00     28.800     3.456    0.0749
   07/10/2005 19:00:00     54.000     6.480    0.0994
   07/10/2005 19:05:00     21.600     2.592    0.1700
   07/10/2005 19:10:00     10.800     1.296    0.1398
   07/10/2005 19:15:00      2.400     0.288    0.1070
   07/10/2005 19:20:00      1.200     0.144    0.0774
   07/10/2005 19:25:00      0.000     0.000    0.0602
   07/10/2005 19:30:00      0.000     0.000    0.0486
   07/10/2005 19:35:00      1.200     0.144    0.0412
   07/10/2005 19:40:00      0.000     0.000    0.0374
   07/10/2005 19:45:00      0.000     0.000    0.0333
   07/10/2005 19:50:00      0.000     0.000    0.0301
   07/10/2005 19:55:00      1.200     0.144    0.0276
   07/10/2005 20:00:00      8.400     1.008    0.0266
   07/10/2005 20:05:00      7.200     0.864    0.0330
   07/10/2005 20:10:00      2.400     0.288    0.0376
   07/10/2005 20:15:00      1.200     0.144    0.0353
   07/10/2005 20:20:00      2.400     0.288    0.0321
   07/10/2005 20:25:00      3.600     0.432    0.0311
   07/10/2005 20:30:00      3.600     0.432    0.0315
   07/10/2005 20:35:00      2.400     0.288    0.0318
   07/10/2005 20:40:00      1.200     0.144    0.0307
   07/10/2005 20:45:00      1.200     0.144    0.0284
   07/10/2005 20:50:00      0.000     0.000    0.0267
   07/10/2005 20:55:00      1.200     0.144    0.0241
   07/10/2005 21:00:00      1.200     0.144    0.0231
   07/10/2005 21:05:00      1.200     0.144    0.0223
   07/10/2005 21:10:00      1.200     0.144    0.0216
   07/10/2005 21:15:00      0.000     0.000    0.0209
   07/10/2005 21:20:00      0.000     0.000    0.0193
   07/10/2005 21:25:00      0.000     0.000    0.0179
   07/10/2005 21:30:00      0.000     0.000    0.0168
   07/10/2005 21:35:00      0.000     0.000    0.0158
   07/10/2005 21:40:00      0.000     0.000    0.0149
   07/10/2005 21:45:00      0.000     0.000    0.0142
   07/10/2005 21:50:00      0.000     0.000    0.0135
   07/10/2005 21:55:00      0.000     0.000    0.0128
   07/10/2005 22:00:00      0.000     0.000    0.0123
   07/10/2005 22:05:00      0.000     0.000    0.0117
   07/10/2005 22:10:00      0.000     0.000    0.0112
  
  
  <<< Subcatchment S8 >>>
  ---------------------------------------------------
  Date        Time        Precip.    Losses    Runoff
                            mm/hr     mm/hr       CMS
  ---------------------------------------------------
   07/10/2005 17:15:00      1.200     0.195    0.0000
   07/10/2005 17:20:00      3.600     0.571    0.0000
   07/10/2005 17:25:00      7.200     1.067    0.0000
   07/10/2005 17:30:00     10.800     1.397    0.0015
   07/10/2005 17:35:00      6.000     0.633    0.0050
   07/10/2005 17:40:00      3.600     0.341    0.0094
   07/10/2005 17:45:00      2.400     0.214    0.0123
   07/10/2005 17:50:00      3.600     0.308    0.0141
   07/10/2005 17:55:00      3.600     0.290    0.0174
   07/10/2005 18:00:00      3.600     0.273    0.0208
   07/10/2005 18:05:00      8.400     0.600    0.0242
   07/10/2005 18:10:00     21.600     1.334    0.0350
   07/10/2005 18:15:00     12.000     0.720    0.0726
   07/10/2005 18:20:00     24.000     1.440    0.0921
   07/10/2005 18:25:00     24.000     1.440    0.1436
   07/10/2005 18:30:00      7.200     0.432    0.1960
   07/10/2005 18:35:00     18.000     1.080    0.1906
   07/10/2005 18:40:00      4.800     0.288    0.2212
   07/10/2005 18:45:00     10.800     0.648    0.2045
   07/10/2005 18:50:00     25.200     1.512    0.2101
   07/10/2005 18:55:00     28.800     1.728    0.2647
   07/10/2005 19:00:00     54.000     3.240    0.3287
   07/10/2005 19:05:00     21.600     1.296    0.4947
   07/10/2005 19:10:00     10.800     0.648    0.4955
   07/10/2005 19:15:00      2.400     0.144    0.4496
   07/10/2005 19:20:00      1.200     0.072    0.3800
   07/10/2005 19:25:00      0.000     0.000    0.3222
   07/10/2005 19:30:00      0.000     0.000    0.2731
   07/10/2005 19:35:00      1.200     0.072    0.2345
   07/10/2005 19:40:00      0.000     0.000    0.2075
   07/10/2005 19:45:00      0.000     0.000    0.1818
   07/10/2005 19:50:00      0.000     0.000    0.1607
   07/10/2005 19:55:00      1.200     0.072    0.1432
   07/10/2005 20:00:00      8.400     0.504    0.1317
   07/10/2005 20:05:00      7.200     0.432    0.1411
   07/10/2005 20:10:00      2.400     0.144    0.1464
   07/10/2005 20:15:00      1.200     0.072    0.1378
   07/10/2005 20:20:00      2.400     0.144    0.1272
   07/10/2005 20:25:00      3.600     0.216    0.1212
   07/10/2005 20:30:00      3.600     0.216    0.1190
   07/10/2005 20:35:00      2.400     0.144    0.1171
   07/10/2005 20:40:00      1.200     0.072    0.1123
   07/10/2005 20:45:00      1.200     0.072    0.1053
   07/10/2005 20:50:00      0.000     0.000    0.0991
   07/10/2005 20:55:00      1.200     0.072    0.0909
   07/10/2005 21:00:00      1.200     0.072    0.0864
   07/10/2005 21:05:00      1.200     0.072    0.0824
   07/10/2005 21:10:00      1.200     0.072    0.0788
   07/10/2005 21:15:00      0.000     0.000    0.0756
   07/10/2005 21:20:00      0.000     0.000    0.0702
   07/10/2005 21:25:00      0.000     0.000    0.0654
   07/10/2005 21:30:00      0.000     0.000    0.0612
   07/10/2005 21:35:00      0.000     0.000    0.0573
   07/10/2005 21:40:00      0.000     0.000    0.0539
   07/10/2005 21:45:00      0.000     0.000    0.0508
   07/10/2005 21:50:00      0.000     0.000    0.0479
   07/10/2005 21:55:00      0.000     0.000    0.0453
   07/10/2005 22:00:00      0.000     0.000    0.0430
   07/10/2005 22:05:00      0.000     0.000    0.0408
   07/10/2005 22:10:00      0.000     0.000    0.0388
  
  
  <<< Subcatchment S9 >>>
  ---------------------------------------------------
  Date        Time        Precip.    Losses    Runoff
                            mm/hr     mm/hr       CMS
  ---------------------------------------------------
   07/10/2005 17:15:00      1.200     0.354    0.0000
   07/10/2005 17:20:00      3.600     1.037    0.0000
   07/10/2005 17:25:00      7.200     1.939    0.0000
   07/10/2005 17:30:00     10.800     2.539    0.0015
   07/10/2005 17:35:00      6.000     1.149    0.0050
   07/10/2005 17:40:00      3.600     0.620    0.0094
   07/10/2005 17:45:00      2.400     0.389    0.0123
   07/10/2005 17:50:00      3.600     0.560    0.0141
   07/10/2005 17:55:00      3.600     0.527    0.0174
   07/10/2005 18:00:00      3.600     0.496    0.0208
   07/10/2005 18:05:00      8.400     1.090    0.0242
   07/10/2005 18:10:00     21.600     2.423    0.0350
   07/10/2005 18:15:00     12.000     1.308    0.0726
   07/10/2005 18:20:00     24.000     2.616    0.0921
   07/10/2005 18:25:00     24.000     2.616    0.1436
   07/10/2005 18:30:00      7.200     0.785    0.1961
   07/10/2005 18:35:00     18.000     1.962    0.1908
   07/10/2005 18:40:00      4.800     0.523    0.2214
   07/10/2005 18:45:00     10.800     1.177    0.2048
   07/10/2005 18:50:00     25.200     2.747    0.2105
   07/10/2005 18:55:00     28.800     3.139    0.2654
   07/10/2005 19:00:00     54.000     5.886    0.3297
   07/10/2005 19:05:00     21.600     2.354    0.4965
   07/10/2005 19:10:00     10.800     1.177    0.4981
   07/10/2005 19:15:00      2.400     0.262    0.4531
   07/10/2005 19:20:00      1.200     0.131    0.3842
   07/10/2005 19:25:00      0.000     0.000    0.3271
   07/10/2005 19:30:00      0.000     0.000    0.2787
   07/10/2005 19:35:00      1.200     0.131    0.2407
   07/10/2005 19:40:00      0.000     0.000    0.2143
   07/10/2005 19:45:00      0.000     0.000    0.1891
   07/10/2005 19:50:00      0.000     0.000    0.1685
   07/10/2005 19:55:00      1.200     0.131    0.1515
   07/10/2005 20:00:00      8.400     0.916    0.1404
   07/10/2005 20:05:00      7.200     0.785    0.1505
   07/10/2005 20:10:00      2.400     0.262    0.1564
   07/10/2005 20:15:00      1.200     0.131    0.1483
   07/10/2005 20:20:00      2.400     0.262    0.1382
   07/10/2005 20:25:00      3.600     0.392    0.1326
   07/10/2005 20:30:00      3.600     0.392    0.1309
   07/10/2005 20:35:00      2.400     0.262    0.1295
   07/10/2005 20:40:00      1.200     0.131    0.1252
   07/10/2005 20:45:00      1.200     0.131    0.1185
   07/10/2005 20:50:00      0.000     0.000    0.1127
   07/10/2005 20:55:00      1.200     0.131    0.1047
   07/10/2005 21:00:00      1.200     0.131    0.1006
   07/10/2005 21:05:00      1.200     0.131    0.0968
   07/10/2005 21:10:00      1.200     0.131    0.0935
   07/10/2005 21:15:00      0.000     0.000    0.0906
   07/10/2005 21:20:00      0.000     0.000    0.0854
   07/10/2005 21:25:00      0.000     0.000    0.0808
   07/10/2005 21:30:00      0.000     0.000    0.0767
   07/10/2005 21:35:00      0.000     0.000    0.0730
   07/10/2005 21:40:00      0.000     0.000    0.0697
   07/10/2005 21:45:00      0.000     0.000    0.0666
   07/10/2005 21:50:00      0.000     0.000    0.0639
   07/10/2005 21:55:00      0.000     0.000    0.0614
   07/10/2005 22:00:00      0.000     0.000    0.0591
   07/10/2005 22:05:00      0.000     0.000    0.0570
   07/10/2005 22:10:00      0.000     0.000    0.0550
  
  
  <<< Subcatchment S10 >>>
  ---------------------------------------------------
  Date        Time        Precip.    Losses    Runoff
                            mm/hr     mm/hr       CMS
  ---------------------------------------------------
   07/10/2005 17:15:00      1.200     0.389    0.0000
   07/10/2005 17:20:00      3.600     1.142    0.0000
   07/10/2005 17:25:00      7.200     2.135    0.0003
   07/10/2005 17:30:00     10.800     2.795    0.0013
   07/10/2005 17:35:00      6.000     1.265    0.0040
   07/10/2005 17:40:00      3.600     0.683    0.0067
   07/10/2005 17:45:00      2.400     0.428    0.0076
   07/10/2005 17:50:00      3.600     0.617    0.0074
   07/10/2005 17:55:00      3.600     0.580    0.0083
   07/10/2005 18:00:00      3.600     0.546    0.0090
   07/10/2005 18:05:00      8.400     1.200    0.0095
   07/10/2005 18:10:00     21.600     2.668    0.0143
   07/10/2005 18:15:00     12.000     1.440    0.0339
   07/10/2005 18:20:00     24.000     2.880    0.0356
   07/10/2005 18:25:00     24.000     2.880    0.0546
   07/10/2005 18:30:00      7.200     0.864    0.0671
   07/10/2005 18:35:00     18.000     2.160    0.0485
   07/10/2005 18:40:00      4.800     0.576    0.0559
   07/10/2005 18:45:00     10.800     1.296    0.0413
   07/10/2005 18:50:00     25.200     3.024    0.0423
   07/10/2005 18:55:00     28.800     3.456    0.0655
   07/10/2005 19:00:00     54.000     6.480    0.0874
   07/10/2005 19:05:00     21.600     2.592    0.1508
   07/10/2005 19:10:00     10.800     1.296    0.1207
   07/10/2005 19:15:00      2.400     0.288    0.0912
   07/10/2005 19:20:00      1.200     0.144    0.0654
   07/10/2005 19:25:00      0.000     0.000    0.0510
   07/10/2005 19:30:00      0.000     0.000    0.0412
   07/10/2005 19:35:00      1.200     0.144    0.0351
   07/10/2005 19:40:00      0.000     0.000    0.0320
   07/10/2005 19:45:00      0.000     0.000    0.0285
   07/10/2005 19:50:00      0.000     0.000    0.0258
   07/10/2005 19:55:00      1.200     0.144    0.0236
   07/10/2005 20:00:00      8.400     1.008    0.0228
   07/10/2005 20:05:00      7.200     0.864    0.0287
   07/10/2005 20:10:00      2.400     0.288    0.0328
   07/10/2005 20:15:00      1.200     0.144    0.0305
   07/10/2005 20:20:00      2.400     0.288    0.0276
   07/10/2005 20:25:00      3.600     0.432    0.0266
   07/10/2005 20:30:00      3.600     0.432    0.0270
   07/10/2005 20:35:00      2.400     0.288    0.0272
   07/10/2005 20:40:00      1.200     0.144    0.0261
   07/10/2005 20:45:00      1.200     0.144    0.0240
   07/10/2005 20:50:00      0.000     0.000    0.0224
   07/10/2005 20:55:00      1.200     0.144    0.0201
   07/10/2005 21:00:00      1.200     0.144    0.0193
   07/10/2005 21:05:00      1.200     0.144    0.0185
   07/10/2005 21:10:00      1.200     0.144    0.0179
   07/10/2005 21:15:00      0.000     0.000    0.0173
   07/10/2005 21:20:00      0.000     0.000    0.0159
   07/10/2005 21:25:00      0.000     0.000    0.0147
   07/10/2005 21:30:00      0.000     0.000    0.0137
   07/10/2005 21:35:00      0.000     0.000    0.0128
   07/10/2005 21:40:00      0.000     0.000    0.0121
   07/10/2005 21:45:00      0.000     0.000    0.0114
   07/10/2005 21:50:00      0.000     0.000    0.0108
   07/10/2005 21:55:00      0.000     0.000    0.0103
   07/10/2005 22:00:00      0.000     0.000    0.0098
   07/10/2005 22:05:00      0.000     0.000    0.0093
   07/10/2005 22:10:00      0.000     0.000    0.0089
  
  
  <<< Subcatchment S11 >>>
  ---------------------------------------------------
  Date        Time        Precip.    Losses    Runoff
                            mm/hr     mm/hr       CMS
  ---------------------------------------------------
   07/10/2005 17:15:00      1.200     0.389    0.0000
   07/10/2005 17:20:00      3.600     1.142    0.0000
   07/10/2005 17:25:00      7.200     2.135    0.0000
   07/10/2005 17:30:00     10.800     2.795    0.0024
   07/10/2005 17:35:00      6.000     1.265    0.0079
   07/10/2005 17:40:00      3.600     0.683    0.0140
   07/10/2005 17:45:00      2.400     0.428    0.0170
   07/10/2005 17:50:00      3.600     0.617    0.0180
   07/10/2005 17:55:00      3.600     0.580    0.0209
   07/10/2005 18:00:00      3.600     0.546    0.0236
   07/10/2005 18:05:00      8.400     1.200    0.0259
   07/10/2005 18:10:00     21.600     2.668    0.0378
   07/10/2005 18:15:00     12.000     1.440    0.0836
   07/10/2005 18:20:00     24.000     2.880    0.0959
   07/10/2005 18:25:00     24.000     2.880    0.1463
   07/10/2005 18:30:00      7.200     0.864    0.1866
   07/10/2005 18:35:00     18.000     2.160    0.1524
   07/10/2005 18:40:00      4.800     0.576    0.1707
   07/10/2005 18:45:00     10.800     1.296    0.1364
   07/10/2005 18:50:00     25.200     3.024    0.1356
   07/10/2005 18:55:00     28.800     3.456    0.1889
   07/10/2005 19:00:00     54.000     6.480    0.2453
   07/10/2005 19:05:00     21.600     2.592    0.4058
   07/10/2005 19:10:00     10.800     1.296    0.3571
   07/10/2005 19:15:00      2.400     0.288    0.2855
   07/10/2005 19:20:00      1.200     0.144    0.2130
   07/10/2005 19:25:00      0.000     0.000    0.1668
   07/10/2005 19:30:00      0.000     0.000    0.1340
   07/10/2005 19:35:00      1.200     0.144    0.1124
   07/10/2005 19:40:00      0.000     0.000    0.1005
   07/10/2005 19:45:00      0.000     0.000    0.0885
   07/10/2005 19:50:00      0.000     0.000    0.0795
   07/10/2005 19:55:00      1.200     0.144    0.0724
   07/10/2005 20:00:00      8.400     1.008    0.0693
   07/10/2005 20:05:00      7.200     0.864    0.0833
   07/10/2005 20:10:00      2.400     0.288    0.0931
   07/10/2005 20:15:00      1.200     0.144    0.0886
   07/10/2005 20:20:00      2.400     0.288    0.0820
   07/10/2005 20:25:00      3.600     0.432    0.0797
   07/10/2005 20:30:00      3.600     0.432    0.0807
   07/10/2005 20:35:00      2.400     0.288    0.0814
   07/10/2005 20:40:00      1.200     0.144    0.0791
   07/10/2005 20:45:00      1.200     0.144    0.0743
   07/10/2005 20:50:00      0.000     0.000    0.0704
   07/10/2005 20:55:00      1.200     0.144    0.0646
   07/10/2005 21:00:00      1.200     0.144    0.0623
   07/10/2005 21:05:00      1.200     0.144    0.0603
   07/10/2005 21:10:00      1.200     0.144    0.0585
   07/10/2005 21:15:00      0.000     0.000    0.0570
   07/10/2005 21:20:00      0.000     0.000    0.0532
   07/10/2005 21:25:00      0.000     0.000    0.0501
   07/10/2005 21:30:00      0.000     0.000    0.0474
   07/10/2005 21:35:00      0.000     0.000    0.0450
   07/10/2005 21:40:00      0.000     0.000    0.0428
   07/10/2005 21:45:00      0.000     0.000    0.0409
   07/10/2005 21:50:00      0.000     0.000    0.0392
   07/10/2005 21:55:00      0.000     0.000    0.0376
   07/10/2005 22:00:00      0.000     0.000    0.0362
   07/10/2005 22:05:00      0.000     0.000    0.0348
   07/10/2005 22:10:00      0.000     0.000    0.0336
  
  
  <<< Subcatchment S12 >>>
  ---------------------------------------------------
  Date        Time        Precip.    Losses    Runoff
                            mm/hr     mm/hr       CMS
  ---------------------------------------------------
   07/10/2005 17:15:00      1.200     0.259    0.0000
   07/10/2005 17:20:00      3.600     0.761    0.0000
   07/10/2005 17:25:00      7.200     1.423    0.0000
   07/10/2005 17:30:00     10.800     1.863    0.0014
   07/10/2005 17:35:00      6.000     0.844    0.0050
   07/10/2005 17:40:00      3.600     0.455    0.0093
   07/10/2005 17:45:00      2.400     0.285    0.0121
   07/10/2005 17:50:00      3.600     0.411    0.0138
   07/10/2005 17:55:00      3.600     0.387    0.0169
   07/10/2005 18:00:00      3.600     0.364    0.0201
   07/10/2005 18:05:00      8.400     0.800    0.0233
   07/10/2005 18:10:00     21.600     1.779    0.0336
   07/10/2005 18:15:00     12.000     0.960    0.0700
   07/10/2005 18:20:00     24.000     1.920    0.0879
   07/10/2005 18:25:00     24.000     1.920    0.1367
   07/10/2005 18:30:00      7.200     0.576    0.1852
   07/10/2005 18:35:00     18.000     1.440    0.1771
   07/10/2005 18:40:00      4.800     0.384    0.2041
   07/10/2005 18:45:00     10.800     0.864    0.1857
   07/10/2005 18:50:00     25.200     2.016    0.1893
   07/10/2005 18:55:00     28.800     2.304    0.2398
   07/10/2005 19:00:00     54.000     4.320    0.2984
   07/10/2005 19:05:00     21.600     1.728    0.4534
   07/10/2005 19:10:00     10.800     0.864    0.4483
   07/10/2005 19:15:00      2.400     0.192    0.4008
   07/10/2005 19:20:00      1.200     0.096    0.3333
   07/10/2005 19:25:00      0.000     0.000    0.2791
   07/10/2005 19:30:00      0.000     0.000    0.2341
   07/10/2005 19:35:00      1.200     0.096    0.1996
   07/10/2005 19:40:00      0.000     0.000    0.1760
   07/10/2005 19:45:00      0.000     0.000    0.1538
   07/10/2005 19:50:00      0.000     0.000    0.1358
   07/10/2005 19:55:00      1.200     0.096    0.1210
   07/10/2005 20:00:00      8.400     0.672    0.1117
   07/10/2005 20:05:00      7.200     0.576    0.1214
   07/10/2005 20:10:00      2.400     0.192    0.1272
   07/10/2005 20:15:00      1.200     0.096    0.1201
   07/10/2005 20:20:00      2.400     0.192    0.1111
   07/10/2005 20:25:00      3.600     0.288    0.1063
   07/10/2005 20:30:00      3.600     0.288    0.1049
   07/10/2005 20:35:00      2.400     0.192    0.1038
   07/10/2005 20:40:00      1.200     0.096    0.1000
   07/10/2005 20:45:00      1.200     0.096    0.0940
   07/10/2005 20:50:00      0.000     0.000    0.0887
   07/10/2005 20:55:00      1.200     0.096    0.0816
   07/10/2005 21:00:00      1.200     0.096    0.0779
   07/10/2005 21:05:00      1.200     0.096    0.0747
   07/10/2005 21:10:00      1.200     0.096    0.0717
   07/10/2005 21:15:00      0.000     0.000    0.0691
   07/10/2005 21:20:00      0.000     0.000    0.0645
   07/10/2005 21:25:00      0.000     0.000    0.0604
   07/10/2005 21:30:00      0.000     0.000    0.0568
   07/10/2005 21:35:00      0.000     0.000    0.0535
   07/10/2005 21:40:00      0.000     0.000    0.0506
   07/10/2005 21:45:00      0.000     0.000    0.0479
   07/10/2005 21:50:00      0.000     0.000    0.0455
   07/10/2005 21:55:00      0.000     0.000    0.0433
   07/10/2005 22:00:00      0.000     0.000    0.0413
   07/10/2005 22:05:00      0.000     0.000    0.0395
   07/10/2005 22:10:00      0.000     0.000    0.0378
  
  
  <<< Subcatchment S13 >>>
  ---------------------------------------------------
  Date        Time        Precip.    Losses    Runoff
                            mm/hr     mm/hr       CMS
  ---------------------------------------------------
   07/10/2005 17:15:00      1.200     0.259    0.0000
   07/10/2005 17:20:00      3.600     0.761    0.0000
   07/10/2005 17:25:00      7.200     1.423    0.0000
   07/10/2005 17:30:00     10.800     1.863    0.0018
   07/10/2005 17:35:00      6.000     0.844    0.0061
   07/10/2005 17:40:00      3.600     0.455    0.0113
   07/10/2005 17:45:00      2.400     0.285    0.0146
   07/10/2005 17:50:00      3.600     0.411    0.0164
   07/10/2005 17:55:00      3.600     0.387    0.0199
   07/10/2005 18:00:00      3.600     0.364    0.0234
   07/10/2005 18:05:00      8.400     0.800    0.0268
   07/10/2005 18:10:00     21.600     1.779    0.0387
   07/10/2005 18:15:00     12.000     0.960    0.0813
   07/10/2005 18:20:00     24.000     1.920    0.1005
   07/10/2005 18:25:00     24.000     1.920    0.1553
   07/10/2005 18:30:00      7.200     0.576    0.2076
   07/10/2005 18:35:00     18.000     1.440    0.1922
   07/10/2005 18:40:00      4.800     0.384    0.2189
   07/10/2005 18:45:00     10.800     0.864    0.1934
   07/10/2005 18:50:00     25.200     2.016    0.1948
   07/10/2005 18:55:00     28.800     2.304    0.2498
   07/10/2005 19:00:00     54.000     4.320    0.3127
   07/10/2005 19:05:00     21.600     1.728    0.4837
   07/10/2005 19:10:00     10.800     0.864    0.4664
   07/10/2005 19:15:00      2.400     0.192    0.4052
   07/10/2005 19:20:00      1.200     0.096    0.3267
   07/10/2005 19:25:00      0.000     0.000    0.2669
   07/10/2005 19:30:00      0.000     0.000    0.2192
   07/10/2005 19:35:00      1.200     0.096    0.1840
   07/10/2005 19:40:00      0.000     0.000    0.1609
   07/10/2005 19:45:00      0.000     0.000    0.1392
   07/10/2005 19:50:00      0.000     0.000    0.1221
   07/10/2005 19:55:00      1.200     0.096    0.1083
   07/10/2005 20:00:00      8.400     0.672    0.1000
   07/10/2005 20:05:00      7.200     0.576    0.1120
   07/10/2005 20:10:00      2.400     0.192    0.1194
   07/10/2005 20:15:00      1.200     0.096    0.1127
   07/10/2005 20:20:00      2.400     0.192    0.1038
   07/10/2005 20:25:00      3.600     0.288    0.0994
   07/10/2005 20:30:00      3.600     0.288    0.0988
   07/10/2005 20:35:00      2.400     0.192    0.0982
   07/10/2005 20:40:00      1.200     0.096    0.0946
   07/10/2005 20:45:00      1.200     0.096    0.0886
   07/10/2005 20:50:00      0.000     0.000    0.0834
   07/10/2005 20:55:00      1.200     0.096    0.0763
   07/10/2005 21:00:00      1.200     0.096    0.0727
   07/10/2005 21:05:00      1.200     0.096    0.0697
   07/10/2005 21:10:00      1.200     0.096    0.0669
   07/10/2005 21:15:00      0.000     0.000    0.0645
   07/10/2005 21:20:00      0.000     0.000    0.0599
   07/10/2005 21:25:00      0.000     0.000    0.0558
   07/10/2005 21:30:00      0.000     0.000    0.0522
   07/10/2005 21:35:00      0.000     0.000    0.0491
   07/10/2005 21:40:00      0.000     0.000    0.0462
   07/10/2005 21:45:00      0.000     0.000    0.0437
   07/10/2005 21:50:00      0.000     0.000    0.0414
   07/10/2005 21:55:00      0.000     0.000    0.0393
   07/10/2005 22:00:00      0.000     0.000    0.0374
   07/10/2005 22:05:00      0.000     0.000    0.0356
   07/10/2005 22:10:00      0.000     0.000    0.0340
  
  
  <<< Subcatchment S14 >>>
  ---------------------------------------------------
  Date        Time        Precip.    Losses    Runoff
                            mm/hr     mm/hr       CMS
  ---------------------------------------------------
   07/10/2005 17:15:00      1.200     0.389    0.0000
   07/10/2005 17:20:00      3.600     1.142    0.0000
   07/10/2005 17:25:00      7.200     2.135    0.0000
   07/10/2005 17:30:00     10.800     2.795    0.0014
   07/10/2005 17:35:00      6.000     1.265    0.0049
   07/10/2005 17:40:00      3.600     0.683    0.0090
   07/10/2005 17:45:00      2.400     0.428    0.0116
   07/10/2005 17:50:00      3.600     0.617    0.0130
   07/10/2005 17:55:00      3.600     0.580    0.0157
   07/10/2005 18:00:00      3.600     0.546    0.0184
   07/10/2005 18:05:00      8.400     1.200    0.0211
   07/10/2005 18:10:00     21.600     2.668    0.0305
   07/10/2005 18:15:00     12.000     1.440    0.0642
   07/10/2005 18:20:00     24.000     2.880    0.0790
   07/10/2005 18:25:00     24.000     2.880    0.1220
   07/10/2005 18:30:00      7.200     0.864    0.1627
   07/10/2005 18:35:00     18.000     2.160    0.1498
   07/10/2005 18:40:00      4.800     0.576    0.1704
   07/10/2005 18:45:00     10.800     1.296    0.1498
   07/10/2005 18:50:00     25.200     3.024    0.1507
   07/10/2005 18:55:00     28.800     3.456    0.1939
   07/10/2005 19:00:00     54.000     6.480    0.2433
   07/10/2005 19:05:00     21.600     2.592    0.3777
   07/10/2005 19:10:00     10.800     1.296    0.3633
   07/10/2005 19:15:00      2.400     0.288    0.3151
   07/10/2005 19:20:00      1.200     0.144    0.2539
   07/10/2005 19:25:00      0.000     0.000    0.2078
   07/10/2005 19:30:00      0.000     0.000    0.1715
   07/10/2005 19:35:00      1.200     0.144    0.1448
   07/10/2005 19:40:00      0.000     0.000    0.1277
   07/10/2005 19:45:00      0.000     0.000    0.1116
   07/10/2005 19:50:00      0.000     0.000    0.0989
   07/10/2005 19:55:00      1.200     0.144    0.0888
   07/10/2005 20:00:00      8.400     1.008    0.0830
   07/10/2005 20:05:00      7.200     0.864    0.0931
   07/10/2005 20:10:00      2.400     0.288    0.0996
   07/10/2005 20:15:00      1.200     0.144    0.0948
   07/10/2005 20:20:00      2.400     0.288    0.0883
   07/10/2005 20:25:00      3.600     0.432    0.0854
   07/10/2005 20:30:00      3.600     0.432    0.0854
   07/10/2005 20:35:00      2.400     0.288    0.0854
   07/10/2005 20:40:00      1.200     0.144    0.0830
   07/10/2005 20:45:00      1.200     0.144    0.0786
   07/10/2005 20:50:00      0.000     0.000    0.0749
   07/10/2005 20:55:00      1.200     0.144    0.0696
   07/10/2005 21:00:00      1.200     0.144    0.0671
   07/10/2005 21:05:00      1.200     0.144    0.0650
   07/10/2005 21:10:00      1.200     0.144    0.0631
   07/10/2005 21:15:00      0.000     0.000    0.0614
   07/10/2005 21:20:00      0.000     0.000    0.0580
   07/10/2005 21:25:00      0.000     0.000    0.0550
   07/10/2005 21:30:00      0.000     0.000    0.0523
   07/10/2005 21:35:00      0.000     0.000    0.0499
   07/10/2005 21:40:00      0.000     0.000    0.0478
   07/10/2005 21:45:00      0.000     0.000    0.0459
   07/10/2005 21:50:00      0.000     0.000    0.0442
   07/10/2005 21:55:00      0.000     0.000    0.0426
   07/10/2005 22:00:00      0.000     0.000    0.0412
   07/10/2005 22:05:00      0.000     0.000    0.0399
   07/10/2005 22:10:00      0.000     0.000    0.0386
  
  
  <<< Subcatchment S15 >>>
  ---------------------------------------------------
  Date        Time        Precip.    Losses    Runoff
                            mm/hr     mm/hr       CMS
  ---------------------------------------------------
   07/10/2005 17:15:00      1.200     0.324    0.0000
   07/10/2005 17:20:00      3.600     0.952    0.0000
   07/10/2005 17:25:00      7.200     1.779    0.0000
   07/10/2005 17:30:00     10.800     2.329    0.0014
   07/10/2005 17:35:00      6.000     1.054    0.0049
   07/10/2005 17:40:00      3.600     0.569    0.0089
   07/10/2005 17:45:00      2.400     0.357    0.0115
   07/10/2005 17:50:00      3.600     0.514    0.0129
   07/10/2005 17:55:00      3.600     0.484    0.0156
   07/10/2005 18:00:00      3.600     0.455    0.0182
   07/10/2005 18:05:00      8.400     1.000    0.0208
   07/10/2005 18:10:00     21.600     2.223    0.0301
   07/10/2005 18:15:00     12.000     1.200    0.0635
   07/10/2005 18:20:00     24.000     2.400    0.0780
   07/10/2005 18:25:00     24.000     2.400    0.1204
   07/10/2005 18:30:00      7.200     0.720    0.1602
   07/10/2005 18:35:00     18.000     1.800    0.1468
   07/10/2005 18:40:00      4.800     0.480    0.1667
   07/10/2005 18:45:00     10.800     1.080    0.1459
   07/10/2005 18:50:00     25.200     2.520    0.1466
   07/10/2005 18:55:00     28.800     2.880    0.1890
   07/10/2005 19:00:00     54.000     5.400    0.2373
   07/10/2005 19:05:00     21.600     2.160    0.3693
   07/10/2005 19:10:00     10.800     1.080    0.3537
   07/10/2005 19:15:00      2.400     0.240    0.3052
   07/10/2005 19:20:00      1.200     0.120    0.2445
   07/10/2005 19:25:00      0.000     0.000    0.1990
   07/10/2005 19:30:00      0.000     0.000    0.1633
   07/10/2005 19:35:00      1.200     0.120    0.1372
   07/10/2005 19:40:00      0.000     0.000    0.1204
   07/10/2005 19:45:00      0.000     0.000    0.1047
   07/10/2005 19:50:00      0.000     0.000    0.0923
   07/10/2005 19:55:00      1.200     0.120    0.0824
   07/10/2005 20:00:00      8.400     0.840    0.0767
   07/10/2005 20:05:00      7.200     0.720    0.0864
   07/10/2005 20:10:00      2.400     0.240    0.0926
   07/10/2005 20:15:00      1.200     0.120    0.0878
   07/10/2005 20:20:00      2.400     0.240    0.0814
   07/10/2005 20:25:00      3.600     0.360    0.0784
   07/10/2005 20:30:00      3.600     0.360    0.0782
   07/10/2005 20:35:00      2.400     0.240    0.0781
   07/10/2005 20:40:00      1.200     0.120    0.0756
   07/10/2005 20:45:00      1.200     0.120    0.0712
   07/10/2005 20:50:00      0.000     0.000    0.0674
   07/10/2005 20:55:00      1.200     0.120    0.0621
   07/10/2005 21:00:00      1.200     0.120    0.0596
   07/10/2005 21:05:00      1.200     0.120    0.0574
   07/10/2005 21:10:00      1.200     0.120    0.0554
   07/10/2005 21:15:00      0.000     0.000    0.0537
   07/10/2005 21:20:00      0.000     0.000    0.0503
   07/10/2005 21:25:00      0.000     0.000    0.0473
   07/10/2005 21:30:00      0.000     0.000    0.0446
   07/10/2005 21:35:00      0.000     0.000    0.0423
   07/10/2005 21:40:00      0.000     0.000    0.0402
   07/10/2005 21:45:00      0.000     0.000    0.0383
   07/10/2005 21:50:00      0.000     0.000    0.0365
   07/10/2005 21:55:00      0.000     0.000    0.0350
   07/10/2005 22:00:00      0.000     0.000    0.0335
   07/10/2005 22:05:00      0.000     0.000    0.0322
   07/10/2005 22:10:00      0.000     0.000    0.0310
  
  
  ************
  Node Results
  ************
  
  <<< Node J0 >>>
  ----------------------------------------------------------------
                           Inflow  Flooding     Depth      Head
  Date        Time            CMS       CMS    meters    meters
  ----------------------------------------------------------------
   07/10/2005 17:15:00      0.000     0.000     0.011    31.001
   07/10/2005 17:20:00      0.000     0.000     0.006    30.996
   07/10/2005 17:25:00      0.000     0.000     0.005    30.995
   07/10/2005 17:30:00      0.001     0.000     0.012    31.002
   07/10/2005 17:35:00      0.005     0.000     0.024    31.014
   07/10/2005 17:40:00      0.009     0.000     0.034    31.024
   07/10/2005 17:45:00      0.011     0.000     0.040    31.030
[...]
   07/10/2005 17:55:00      0.031     0.770     0.067     0.006
   07/10/2005 18:00:00      0.039     0.819     0.076     0.007
   07/10/2005 18:05:00      0.047     0.857     0.083     0.008
   07/10/2005 18:10:00      0.056     0.896     0.091     0.009
   07/10/2005 18:15:00      0.080     0.990     0.108     0.011
   07/10/2005 18:20:00      0.145     1.190     0.141     0.017
   07/10/2005 18:25:00      0.219     1.350     0.172     0.023
   07/10/2005 18:30:00      0.330     1.522     0.209     0.031
   07/10/2005 18:35:00      0.420     1.648     0.234     0.036
   07/10/2005 18:40:00      0.423     1.633     0.237     0.037
   07/10/2005 18:45:00      0.432     1.646     0.239     0.037
   07/10/2005 18:50:00      0.402     1.599     0.232     0.036
   07/10/2005 18:55:00      0.413     1.607     0.235     0.036
   07/10/2005 19:00:00      0.517     1.726     0.260     0.042
   07/10/2005 19:05:00      0.720     1.899     0.306     0.054
   07/10/2005 19:10:00      0.990     2.129     0.352     0.066
   07/10/2005 19:15:00      0.943     2.080     0.346     0.064
   07/10/2005 19:20:00      0.798     1.970     0.320     0.057
   07/10/2005 19:25:00      0.647     1.845     0.290     0.050
   07/10/2005 19:30:00      0.530     1.734     0.264     0.043
   07/10/2005 19:35:00      0.441     1.647     0.242     0.038
   07/10/2005 19:40:00      0.377     1.567     0.225     0.034
   07/10/2005 19:45:00      0.332     1.509     0.211     0.031
   07/10/2005 19:50:00      0.294     1.458     0.199     0.029
   07/10/2005 19:55:00      0.263     1.414     0.189     0.026
   07/10/2005 20:00:00      0.240     1.382     0.180     0.025
   07/10/2005 20:05:00      0.230     1.361     0.177     0.024
   07/10/2005 20:10:00      0.243     1.391     0.181     0.025
   07/10/2005 20:15:00      0.261     1.427     0.187     0.026
   07/10/2005 20:20:00      0.259     1.424     0.186     0.026
   07/10/2005 20:25:00      0.246     1.404     0.182     0.025
   07/10/2005 20:30:00      0.237     1.389     0.179     0.024
   07/10/2005 20:35:00      0.235     1.385     0.177     0.024
   07/10/2005 20:40:00      0.234     1.385     0.177     0.024
   07/10/2005 20:45:00      0.229     1.377     0.175     0.024
   07/10/2005 20:50:00      0.219     1.359     0.171     0.023
   07/10/2005 20:55:00      0.208     1.337     0.167     0.022
   07/10/2005 21:00:00      0.196     1.312     0.162     0.021
   07/10/2005 21:05:00      0.186     1.294     0.158     0.020
   07/10/2005 21:10:00      0.180     1.281     0.155     0.020
   07/10/2005 21:15:00      0.174     1.270     0.153     0.019
   07/10/2005 21:20:00      0.169     1.259     0.150     0.019
   07/10/2005 21:25:00      0.161     1.243     0.147     0.018
   07/10/2005 21:30:00      0.153     1.224     0.143     0.018
   07/10/2005 21:35:00      0.145     1.207     0.140     0.017
   07/10/2005 21:40:00      0.138     1.191     0.137     0.016
   07/10/2005 21:45:00      0.132     1.177     0.134     0.016
   07/10/2005 21:50:00      0.127     1.163     0.131     0.015
   07/10/2005 21:55:00      0.122     1.151     0.128     0.015
   07/10/2005 22:00:00      0.117     1.140     0.126     0.015
   07/10/2005 22:05:00      0.113     1.130     0.124     0.014
   07/10/2005 22:10:00      0.109     1.120     0.122     0.014
  
  
  <<< Link C21 >>>
  ----------------------------------------------------------------
                             Flow  Velocity     Depth  Capacity/
  Date        Time            CMS     m/sec    meters   Setting 
  ----------------------------------------------------------------
   07/10/2005 17:15:00      0.000     0.000     0.000     0.000
   07/10/2005 17:20:00      0.000     0.000     0.001     0.000
   07/10/2005 17:25:00      0.000     0.397     0.004     0.001
   07/10/2005 17:30:00      0.001     0.605     0.010     0.002
   07/10/2005 17:35:00      0.003     0.923     0.020     0.005
   07/10/2005 17:40:00      0.008     1.045     0.031     0.009
   07/10/2005 17:45:00      0.011     0.962     0.042     0.014
   07/10/2005 17:50:00      0.012     0.831     0.050     0.019
   07/10/2005 17:55:00      0.015     0.815     0.058     0.023
   07/10/2005 18:00:00      0.017     0.835     0.063     0.027
   07/10/2005 18:05:00      0.020     0.857     0.068     0.030
   07/10/2005 18:10:00      0.028     1.002     0.077     0.035
   07/10/2005 18:15:00      0.056     1.417     0.098     0.051
   07/10/2005 18:20:00      0.075     1.392     0.121     0.069
   07/10/2005 18:25:00      0.112     1.560     0.147     0.091
   07/10/2005 18:30:00      0.153     1.666     0.174     0.117
   07/10/2005 18:35:00      0.149     1.499     0.184     0.127
   07/10/2005 18:40:00      0.163     1.592     0.188     0.131
   07/10/2005 18:45:00      0.150     1.487     0.186     0.128
   07/10/2005 18:50:00      0.146     1.508     0.181     0.124
   07/10/2005 18:55:00      0.182     1.731     0.191     0.134
   07/10/2005 19:00:00      0.230     1.867     0.214     0.157
   07/10/2005 19:05:00      0.350     2.192     0.257     0.203
   07/10/2005 19:10:00      0.356     1.985     0.279     0.228
   07/10/2005 19:15:00      0.312     1.847     0.268     0.215
   07/10/2005 19:20:00      0.254     1.704     0.245     0.190
   07/10/2005 19:25:00      0.207     1.599     0.221     0.164
   07/10/2005 19:30:00      0.169     1.502     0.201     0.143
   07/10/2005 19:35:00      0.142     1.422     0.185     0.127
   07/10/2005 19:40:00      0.123     1.371     0.172     0.115
   07/10/2005 19:45:00      0.108     1.310     0.162     0.105
   07/10/2005 19:50:00      0.095     1.254     0.152     0.096
   07/10/2005 19:55:00      0.084     1.205     0.145     0.089
   07/10/2005 20:00:00      0.078     1.180     0.139     0.084
   07/10/2005 20:05:00      0.084     1.270     0.139     0.085
   07/10/2005 20:10:00      0.091     1.310     0.144     0.089
   07/10/2005 20:15:00      0.089     1.249     0.146     0.091
   07/10/2005 20:20:00      0.083     1.192     0.144     0.088
   07/10/2005 20:25:00      0.079     1.176     0.140     0.085
   07/10/2005 20:30:00      0.078     1.186     0.139     0.084
   07/10/2005 20:35:00      0.078     1.189     0.138     0.084
   07/10/2005 20:40:00      0.076     1.170     0.137     0.083
   07/10/2005 20:45:00      0.072     1.135     0.135     0.081
   07/10/2005 20:50:00      0.068     1.110     0.132     0.078
   07/10/2005 20:55:00      0.063     1.075     0.128     0.075
   07/10/2005 21:00:00      0.060     1.063     0.125     0.072
   07/10/2005 21:05:00      0.058     1.056     0.122     0.070
   07/10/2005 21:10:00      0.056     1.046     0.120     0.068
   07/10/2005 21:15:00      0.054     1.034     0.118     0.067
   07/10/2005 21:20:00      0.051     1.004     0.116     0.065
   07/10/2005 21:25:00      0.048     0.976     0.113     0.063
   07/10/2005 21:30:00      0.045     0.956     0.110     0.060
   07/10/2005 21:35:00      0.043     0.938     0.108     0.058
   07/10/2005 21:40:00      0.041     0.922     0.105     0.056
   07/10/2005 21:45:00      0.039     0.907     0.103     0.054
   07/10/2005 21:50:00      0.037     0.893     0.101     0.053
   07/10/2005 21:55:00      0.035     0.878     0.099     0.051
   07/10/2005 22:00:00      0.034     0.864     0.097     0.050
   07/10/2005 22:05:00      0.033     0.850     0.095     0.049
   07/10/2005 22:10:00      0.031     0.838     0.094     0.048
  
  
  <<< Link C23 >>>
  ----------------------------------------------------------------
                             Flow  Velocity     Depth  Capacity/
  Date        Time            CMS     m/sec    meters   Setting 
  ----------------------------------------------------------------
   07/10/2005 17:15:00      0.068     1.002     0.090     0.007
   07/10/2005 17:20:00      0.059     1.002     0.082     0.006
   07/10/2005 17:25:00      0.044     0.984     0.069     0.004
   07/10/2005 17:30:00      0.033     0.937     0.057     0.003
   07/10/2005 17:35:00      0.025     0.887     0.049     0.003
   07/10/2005 17:40:00      0.022     0.866     0.046     0.003
   07/10/2005 17:45:00      0.027     0.901     0.052     0.003
   07/10/2005 17:50:00      0.047     0.986     0.072     0.005
   07/10/2005 17:55:00      0.085     1.005     0.104     0.008
   07/10/2005 18:00:00      0.131     1.014     0.139     0.013
   07/10/2005 18:05:00      0.172     1.097     0.157     0.015
   07/10/2005 18:10:00      0.211     1.167     0.173     0.018
   07/10/2005 18:15:00      0.273     1.260     0.195     0.021
   07/10/2005 18:20:00      0.448     1.455     0.248     0.030
   07/10/2005 18:25:00      0.764     1.718     0.319     0.044
   07/10/2005 18:30:00      1.199     1.964     0.396     0.060
   07/10/2005 18:35:00      1.717     2.205     0.468     0.076
   07/10/2005 18:40:00      1.901     2.292     0.489     0.081
   07/10/2005 18:45:00      1.962     2.317     0.496     0.083
   07/10/2005 18:50:00      1.898     2.293     0.488     0.081
   07/10/2005 18:55:00      1.863     2.274     0.485     0.080
   07/10/2005 19:00:00      2.167     2.366     0.523     0.090
   07/10/2005 19:05:00      2.883     2.557     0.604     0.111
   07/10/2005 19:10:00      4.184     2.864     0.724     0.144
   07/10/2005 19:15:00      4.426     2.949     0.738     0.147
   07/10/2005 19:20:00      3.898     2.841     0.693     0.135
   07/10/2005 19:25:00      3.230     2.687     0.632     0.118
   07/10/2005 19:30:00      2.659     2.539     0.574     0.103
   07/10/2005 19:35:00      2.216     2.406     0.525     0.090
   07/10/2005 19:40:00      1.882     2.287     0.486     0.081
   07/10/2005 19:45:00      1.640     2.199     0.454     0.073
   07/10/2005 19:50:00      1.444     2.119     0.427     0.067
   07/10/2005 19:55:00      1.284     2.038     0.404     0.062
   07/10/2005 20:00:00      1.152     1.975     0.384     0.057
   07/10/2005 20:05:00      1.068     1.941     0.369     0.054
   07/10/2005 20:10:00      1.070     1.935     0.370     0.054
   07/10/2005 20:15:00      1.135     1.964     0.381     0.057
   07/10/2005 20:20:00      1.157     1.978     0.384     0.057
   07/10/2005 20:25:00      1.114     1.962     0.377     0.056
   07/10/2005 20:30:00      1.061     1.937     0.368     0.054
   07/10/2005 20:35:00      1.031     1.921     0.363     0.053
   07/10/2005 20:40:00      1.019     1.914     0.361     0.052
   07/10/2005 20:45:00      1.002     1.906     0.358     0.052
   07/10/2005 20:50:00      0.965     1.885     0.351     0.050
   07/10/2005 20:55:00      0.917     1.856     0.343     0.049
   07/10/2005 21:00:00      0.861     1.820     0.333     0.046
   07/10/2005 21:05:00      0.812     1.785     0.324     0.045
   07/10/2005 21:10:00      0.774     1.757     0.317     0.043
   07/10/2005 21:15:00      0.744     1.734     0.311     0.042
   07/10/2005 21:20:00      0.716     1.708     0.307     0.041
   07/10/2005 21:25:00      0.686     1.687     0.300     0.040
   07/10/2005 21:30:00      0.649     1.661     0.293     0.038
   07/10/2005 21:35:00      0.614     1.634     0.285     0.037
   07/10/2005 21:40:00      0.581     1.605     0.278     0.036
   07/10/2005 21:45:00      0.551     1.578     0.271     0.034
   07/10/2005 21:50:00      0.524     1.553     0.264     0.033
   07/10/2005 21:55:00      0.500     1.530     0.258     0.032
   07/10/2005 22:00:00      0.477     1.508     0.253     0.031
   07/10/2005 22:05:00      0.457     1.488     0.248     0.030
   07/10/2005 22:10:00      0.439     1.470     0.243     0.029
  
  
  <<< Link C24 >>>
  ----------------------------------------------------------------
                             Flow  Velocity     Depth  Capacity/
  Date        Time            CMS     m/sec    meters   Setting 
  ----------------------------------------------------------------
   07/10/2005 17:15:00      0.000     0.000     0.000     0.000
   07/10/2005 17:20:00      0.000     0.000     0.001     0.000
   07/10/2005 17:25:00      0.000     0.180     0.004     0.001
   07/10/2005 17:30:00      0.001     0.381     0.010     0.002
   07/10/2005 17:35:00      0.003     0.587     0.022     0.005
   07/10/2005 17:40:00      0.007     0.701     0.037     0.010
   07/10/2005 17:45:00      0.011     0.719     0.048     0.015
   07/10/2005 17:50:00      0.012     0.712     0.054     0.018
   07/10/2005 17:55:00      0.015     0.741     0.058     0.021
   07/10/2005 18:00:00      0.017     0.790     0.063     0.023
   07/10/2005 18:05:00      0.020     0.831     0.068     0.025
   07/10/2005 18:10:00      0.027     0.926     0.076     0.030
   07/10/2005 18:15:00      0.053     1.183     0.103     0.047
   07/10/2005 18:20:00      0.075     1.261     0.125     0.063
   07/10/2005 18:25:00      0.110     1.433     0.148     0.081
   07/10/2005 18:30:00      0.153     1.580     0.174     0.102
   07/10/2005 18:35:00      0.153     1.562     0.176     0.103
   07/10/2005 18:40:00      0.165     1.635     0.179     0.106
   07/10/2005 18:45:00      0.155     1.593     0.175     0.102
   07/10/2005 18:50:00      0.150     1.599     0.171     0.099
   07/10/2005 18:55:00      0.184     1.719     0.186     0.112
   07/10/2005 19:00:00      0.233     1.826     0.211     0.134
   07/10/2005 19:05:00      0.351     2.067     0.258     0.179
   07/10/2005 19:10:00      0.366     2.051     0.267     0.188
   07/10/2005 19:15:00      0.325     1.992     0.251     0.171
   07/10/2005 19:20:00      0.267     1.886     0.227     0.149
   07/10/2005 19:25:00      0.218     1.779     0.205     0.129
   07/10/2005 19:30:00      0.180     1.680     0.187     0.113
   07/10/2005 19:35:00      0.151     1.594     0.172     0.100
   07/10/2005 19:40:00      0.132     1.528     0.161     0.091
   07/10/2005 19:45:00      0.116     1.462     0.152     0.083
   07/10/2005 19:50:00      0.102     1.399     0.144     0.077
   07/10/2005 19:55:00      0.092     1.345     0.137     0.072
   07/10/2005 20:00:00      0.085     1.311     0.132     0.068
   07/10/2005 20:05:00      0.090     1.346     0.135     0.070
   07/10/2005 20:10:00      0.098     1.373     0.141     0.075
   07/10/2005 20:15:00      0.096     1.349     0.141     0.075
   07/10/2005 20:20:00      0.090     1.316     0.137     0.072
   07/10/2005 20:25:00      0.086     1.300     0.134     0.070
   07/10/2005 20:30:00      0.085     1.298     0.134     0.069
   07/10/2005 20:35:00      0.085     1.297     0.134     0.069
   07/10/2005 20:40:00      0.084     1.286     0.133     0.068
   07/10/2005 20:45:00      0.080     1.264     0.130     0.067
   07/10/2005 20:50:00      0.076     1.243     0.127     0.064
   07/10/2005 20:55:00      0.071     1.216     0.123     0.062
   07/10/2005 21:00:00      0.068     1.200     0.120     0.059
   07/10/2005 21:05:00      0.066     1.189     0.118     0.058
   07/10/2005 21:10:00      0.064     1.178     0.117     0.057
   07/10/2005 21:15:00      0.062     1.168     0.115     0.056
   07/10/2005 21:20:00      0.059     1.148     0.113     0.054
   07/10/2005 21:25:00      0.056     1.129     0.110     0.052
   07/10/2005 21:30:00      0.053     1.111     0.107     0.050
   07/10/2005 21:35:00      0.051     1.094     0.105     0.049
   07/10/2005 21:40:00      0.049     1.078     0.103     0.047
   07/10/2005 21:45:00      0.047     1.064     0.101     0.046
   07/10/2005 21:50:00      0.045     1.052     0.099     0.045
   07/10/2005 21:55:00      0.043     1.040     0.097     0.044
   07/10/2005 22:00:00      0.042     1.029     0.096     0.043
   07/10/2005 22:05:00      0.040     1.019     0.094     0.042
   07/10/2005 22:10:00      0.039     1.009     0.093     0.041
  
  
  <<< Link C22 >>>
  ----------------------------------------------------------------
                             Flow  Velocity     Depth  Capacity/
  Date        Time            CMS     m/sec    meters   Setting 
  ----------------------------------------------------------------
   07/10/2005 17:15:00      0.000     0.000     0.036     0.007
   07/10/2005 17:20:00      0.000     0.000     0.029     0.005
   07/10/2005 17:25:00      0.000     0.007     0.024     0.004
   07/10/2005 17:30:00      0.000     0.067     0.023     0.003
   07/10/2005 17:35:00      0.002     0.310     0.026     0.004
   07/10/2005 17:40:00      0.006     0.635     0.034     0.006
   07/10/2005 17:45:00      0.010     0.759     0.043     0.009
   07/10/2005 17:50:00      0.013     0.764     0.050     0.011
   07/10/2005 17:55:00      0.016     0.745     0.057     0.014
   07/10/2005 18:00:00      0.019     0.764     0.064     0.016
   07/10/2005 18:05:00      0.023     0.794     0.069     0.019
   07/10/2005 18:10:00      0.030     0.906     0.077     0.022
   07/10/2005 18:15:00      0.058     1.205     0.099     0.031
   07/10/2005 18:20:00      0.087     1.310     0.123     0.043
   07/10/2005 18:25:00      0.128     1.447     0.149     0.057
   07/10/2005 18:30:00      0.182     1.580     0.179     0.075
   07/10/2005 18:35:00      0.192     1.509     0.192     0.083
   07/10/2005 18:40:00      0.213     1.598     0.199     0.087
   07/10/2005 18:45:00      0.209     1.570     0.198     0.087
   07/10/2005 18:50:00      0.209     1.603     0.195     0.085
   07/10/2005 18:55:00      0.252     1.783     0.206     0.092
   07/10/2005 19:00:00      0.315     1.915     0.229     0.107
   07/10/2005 19:05:00      0.459     2.169     0.273     0.138
   07/10/2005 19:10:00      0.498     2.082     0.298     0.155
   07/10/2005 19:15:00      0.463     2.012     0.290     0.149
   07/10/2005 19:20:00      0.399     1.936     0.268     0.134
   07/10/2005 19:25:00      0.340     1.874     0.246     0.118
   07/10/2005 19:30:00      0.290     1.807     0.225     0.104
   07/10/2005 19:35:00      0.250     1.749     0.208     0.093
   07/10/2005 19:40:00      0.221     1.708     0.194     0.084
   07/10/2005 19:45:00      0.196     1.649     0.183     0.077
   07/10/2005 19:50:00      0.174     1.593     0.173     0.071
   07/10/2005 19:55:00      0.156     1.549     0.164     0.066
   07/10/2005 20:00:00      0.144     1.518     0.157     0.061
   07/10/2005 20:05:00      0.147     1.563     0.156     0.061
   07/10/2005 20:10:00      0.155     1.590     0.160     0.063
   07/10/2005 20:15:00      0.151     1.537     0.160     0.064
   07/10/2005 20:20:00      0.141     1.477     0.158     0.062
   07/10/2005 20:25:00      0.134     1.453     0.154     0.060
   07/10/2005 20:30:00      0.131     1.454     0.152     0.059
   07/10/2005 20:35:00      0.130     1.452     0.151     0.058
   07/10/2005 20:40:00      0.126     1.432     0.149     0.057
   07/10/2005 20:45:00      0.121     1.401     0.147     0.056
   07/10/2005 20:50:00      0.114     1.377     0.143     0.054
   07/10/2005 20:55:00      0.107     1.348     0.139     0.052
   07/10/2005 21:00:00      0.102     1.331     0.136     0.050
   07/10/2005 21:05:00      0.098     1.320     0.133     0.048
   07/10/2005 21:10:00      0.095     1.308     0.130     0.047
   07/10/2005 21:15:00      0.092     1.295     0.128     0.046
   07/10/2005 21:20:00      0.087     1.270     0.126     0.045
   07/10/2005 21:25:00      0.082     1.244     0.123     0.043
   07/10/2005 21:30:00      0.078     1.224     0.120     0.041
   07/10/2005 21:35:00      0.074     1.207     0.117     0.040
   07/10/2005 21:40:00      0.071     1.194     0.114     0.039
   07/10/2005 21:45:00      0.068     1.182     0.112     0.037
   07/10/2005 21:50:00      0.065     1.167     0.109     0.036
   07/10/2005 21:55:00      0.062     1.153     0.107     0.035
   07/10/2005 22:00:00      0.060     1.140     0.105     0.034
   07/10/2005 22:05:00      0.058     1.127     0.103     0.033
   07/10/2005 22:10:00      0.056     1.116     0.101     0.032
  

  Analysis begun on:  Wed Mar 27 17:37:00 2019
  Analysis ended on:  Wed Mar 27 17:37:01 2019
  Total elapsed time: 00:00:01