
  EPA STORM WATER MANAGEMENT MODEL - VERSION 5.1 (Build 5.1.012)
  --------------------------------------------------------------

  
  *************
  Element Count
  *************
  Number of rain gages ...... 1
  Number of subcatchments ... 15
  Number of nodes ........... 25
  Number of links ........... 24
  Number of pollutants ...... 0
  Number of land uses ....... 0
  
  
  ****************
  Raingage Summary
  ****************
                                                      Data       Recording
  Name                 Data Source                    Type       Interval 
  ------------------------------------------------------------------------
  1                    20050710                       VOLUME       5 min.
  
  
  ********************
  Subcatchment Summary
  ********************
  Name                       Area     Width   %Imperv    %Slope Rain Gage            Outlet              
  -----------------------------------------------------------------------------------------------------------
  S1                         2.21    400.00     80.00    0.0500 1                    J1                  
  S2                         7.25    400.00     50.00    0.0500 1                    J0                  
  S3                         1.53    400.00     30.00    0.0500 1                    J4                  
  S4                         6.18    400.00     20.00    0.0500 1                    J8                  
  S5                         9.28    400.00     20.00    0.0500 1                    J7                  
  S6                         6.98    400.00     60.00    0.0500 1                    J5                  
  S7                         3.28    400.00     40.00    0.0500 1                    J25                 
  S8                        10.68    400.00     70.00    0.0500 1                    J11                 
  S9                        16.43    400.00     45.50    0.0500 1                    J14                 
  S10                        2.73    400.00     40.00    0.0500 1                    J9                  
  S11                        9.27    700.00     40.00    0.0500 1                    J10                 
  S12                       10.58    400.00     60.00    0.0500 1                    J17                 
  S13                       10.08    500.00     60.00    0.0500 1                    J24                 
  S14                       11.53    400.00     40.00    0.0500 1                    J15                 
  S15                        8.92    400.00     50.00    0.0500 1                    J23                 
  
  
  ************
  Node Summary
  ************
                                           Invert      Max.    Ponded    External
  Name                 Type                 Elev.     Depth      Area    Inflow  
  -------------------------------------------------------------------------------
  J0                   JUNCTION             30.99      4.00       0.0
  J1                   JUNCTION             28.99      4.00       0.0
  J2                   JUNCTION             25.99      4.00       0.0
  J3                   JUNCTION             30.99      4.00       0.0
  J4                   JUNCTION             33.99      4.00       0.0
  J5                   JUNCTION             28.99      4.00       0.0
  J6                   JUNCTION             23.79      4.00       0.0
  J7                   JUNCTION             28.39      4.00       0.0
  J8                   JUNCTION             29.99      4.00       0.0
  J9                   JUNCTION             28.69      4.00       0.0
  J10                  JUNCTION             25.99      4.00       0.0
  J11                  JUNCTION             25.69      4.00       0.0
  J12                  JUNCTION             22.79      4.00       0.0
  J13                  JUNCTION             25.29      4.00       0.0
  J14                  JUNCTION             24.59      4.00       0.0
  J15                  JUNCTION             24.19      4.00       0.0
  J16                  JUNCTION             23.39      4.00       0.0
  J17                  JUNCTION             22.09      4.00       0.0
  J18                  JUNCTION             16.00      4.00       0.0
  J20                  JUNCTION             17.70      4.00       0.0
  J21                  JUNCTION             19.00      4.00       0.0
  J23                  JUNCTION             22.29      4.00       0.0
  J24                  JUNCTION             20.89      4.00       0.0
  J25                  JUNCTION             30.19      4.00       0.0
  J19                  OUTFALL              15.50      3.60       0.0
  
  
  ************
  Link Summary
  ************
  Name             From Node        To Node          Type            Length    %Slope Roughness
  ---------------------------------------------------------------------------------------------
  C0               J0               J2               CONDUIT          214.0    2.3371    0.0110
  C1               J1               J2               CONDUIT          152.0    1.9741    0.0110
  C2               J3               J2               CONDUIT          306.0    1.6342    0.0110
  C3               J4               J3               CONDUIT          128.0    2.3444    0.0110
  C4               J2               J6               CONDUIT          293.0    0.7509    0.0110
  C5               J5               J6               CONDUIT          246.0    2.1143    0.0110
  C6               J25              J11              CONDUIT          289.0    1.5573    0.0110
  C7               J6               J12              CONDUIT          335.0    0.2985    0.0110
  C8               J7               J6               CONDUIT          187.0    2.4606    0.0110
  C9               J8               J9               CONDUIT          119.0    1.0925    0.0110
  C10              J9               J16              CONDUIT          325.0    1.6310    0.0110
  C11              J10              J11              CONDUIT          227.0    0.1322    0.0110
  C12              J12              J18              CONDUIT          401.0    1.6935    0.0110
  C13              J17              J18              CONDUIT          267.0    2.2815    0.0110
  C14              J11              J13              CONDUIT          113.0    0.3540    0.0110
  C16              J13              J17              CONDUIT          409.0    0.7824    0.0110
  C17              J24              J20              CONDUIT          329.0    0.9697    0.0110
  C18              J20              J18              CONDUIT          215.0    0.7907    0.0110
  C19              J16              J21              CONDUIT          437.0    1.0046    0.0110
  C20              J21              J20              CONDUIT          295.0    0.4407    0.0110
  C21              J23              J21              CONDUIT          204.0    1.6130    0.0110
  C23              J18              J19              CONDUIT          161.0    0.3106    0.0110
  C24              J15              J16              CONDUIT          197.0    0.4061    0.0110
  C22              J14              J12              CONDUIT          280.0    0.6429    0.0110
  
  
  *********************
  Cross Section Summary
  *********************
                                        Full     Full     Hyd.     Max.   No. of     Full
  Conduit          Shape               Depth     Area     Rad.    Width  Barrels     Flow
  ---------------------------------------------------------------------------------------
  C0               CIRCULAR             0.70     0.38     0.17     0.70        1     1.67
  C1               CIRCULAR             0.60     0.28     0.15     0.60        1     1.02
  C2               CIRCULAR             0.80     0.50     0.20     0.80        1     2.00
  C3               CIRCULAR             0.60     0.28     0.15     0.60        1     1.11
  C4               CIRCULAR             1.20     1.13     0.30     1.20        1     3.99
  C5               CIRCULAR             0.70     0.38     0.17     0.70        1     1.59
  C6               CIRCULAR             0.80     0.50     0.20     0.80        1     1.95
  C7               CIRCULAR             2.40     4.52     0.60     2.40        1    15.99
  C8               CIRCULAR             0.70     0.38     0.17     0.70        1     1.72
  C9               CIRCULAR             0.70     0.38     0.17     0.70        1     1.14
  C10              CIRCULAR             1.00     0.79     0.25     1.00        1     3.62
  C11              CIRCULAR             1.50     1.77     0.38     1.50        1     3.04
  C12              CIRCULAR             3.00     7.07     0.75     3.00        1    69.04
  C13              CIRCULAR             1.50     1.77     0.38     1.50        1    12.62
  C14              CIRCULAR             1.50     1.77     0.38     1.50        1     4.97
  C16              CIRCULAR             1.35     1.43     0.34     1.35        1     5.58
  C17              CIRCULAR             0.80     0.50     0.20     0.80        1     1.54
  C18              CIRCULAR             3.00     7.07     0.75     3.00        1    47.18
  C19              CIRCULAR             3.00     7.07     0.75     3.00        1    53.18
  C20              CIRCULAR             3.00     7.07     0.75     3.00        1    35.22
  C21              CIRCULAR             1.00     0.79     0.25     1.00        1     3.60
  C23              CIRCULAR             3.60    10.18     0.90     3.60        1    48.08
  C24              CIRCULAR             1.10     0.95     0.28     1.10        1     2.33
  C22              CIRCULAR             1.40     1.54     0.35     1.40        1     5.57
  
  
  
  *********************************************************
  NOTE: The summary statistics displayed in this report are
  based on results found at every computational time step,  
  not just on results from each reporting time step.
  *********************************************************
  
  ****************
  Analysis Options
  ****************
  Flow Units ............... CMS
  Process Models:
    Rainfall/Runoff ........ YES
    RDII ................... NO
    Snowmelt ............... NO
    Groundwater ............ NO
    Flow Routing ........... YES
    Ponding Allowed ........ NO
    Water Quality .......... NO
  Infiltration Method ...... HORTON
  Flow Routing Method ...... DYNWAVE
  Starting Date ............ 07/10/2005 17:10:00
  Ending Date .............. 07/11/2005 02:00:00
  Antecedent Dry Days ...... 0.0
  Report Time Step ......... 00:05:00
  Wet Time Step ............ 00:05:00
  Dry Time Step ............ 01:00:00
  Routing Time Step ........ 30.00 sec
  Variable Time Step ....... YES
  Maximum Trials ........... 8
  Number of Threads ........ 1
  Head Tolerance ........... 0.005000 m
  
  
  **************************        Volume         Depth
  Runoff Quantity Continuity     hectare-m            mm
  **************************     ---------       -------
  Total Precipitation ......         3.520        30.100
  Evaporation Loss .........         0.000         0.000
  Infiltration Loss ........         0.032         0.272
  Surface Runoff ...........         2.757        23.579
  Final Storage ............         0.737         6.302
  Continuity Error (%) .....        -0.174
  
  
  **************************        Volume        Volume
  Flow Routing Continuity        hectare-m      10^6 ltr
  **************************     ---------     ---------
  Dry Weather Inflow .......         0.000         0.000
  Wet Weather Inflow .......         2.754        27.539
  Groundwater Inflow .......         0.000         0.000
  RDII Inflow ..............         0.000         0.000
  External Inflow ..........         0.000         0.000
  External Outflow .........         2.741        27.415
  Flooding Loss ............         0.000         0.000
  Evaporation Loss .........         0.000         0.000
  Exfiltration Loss ........         0.000         0.000
  Initial Stored Volume ....         0.021         0.207
  Final Stored Volume ......         0.024         0.244
  Continuity Error (%) .....         0.318
  
  
  ***************************
  Time-Step Critical Elements
  ***************************
  Link C14 (30.24%)
  
  
  ********************************
  Highest Flow Instability Indexes
  ********************************
  Link C1 (1)
  Link C3 (1)
  Link C4 (1)
  Link C7 (1)
  Link C10 (1)
  
  
  *************************
  Routing Time Step Summary
  *************************
  Minimum Time Step           :     1.33 sec
  Average Time Step           :    28.62 sec
  Maximum Time Step           :    30.00 sec
  Percent in Steady State     :    -0.00
  Average Iterations per Step :     2.00
  Percent Not Converging      :     0.00
  
  
  ***************************
  Subcatchment Runoff Summary
  ***************************
  
  --------------------------------------------------------------------------------------------------------
                            Total      Total      Total      Total      Total       Total     Peak  Runoff
                           Precip      Runon       Evap      Infil     Runoff      Runoff   Runoff   Coeff
  Subcatchment                 mm         mm         mm         mm         mm    10^6 ltr      CMS
  --------------------------------------------------------------------------------------------------------
  S1                        30.10       0.00       0.00       0.10      28.59        0.63     0.20   0.950
  S2                        30.10       0.00       0.00       0.26      24.80        1.80     0.35   0.824
  S3                        30.10       0.00       0.00       0.36      26.80        0.41     0.10   0.890
  S4                        30.10       0.00       0.00       0.42      20.82        1.29     0.19   0.692
  S5                        30.10       0.00       0.00       0.42      18.42        1.71     0.24   0.612
  S6                        30.10       0.00       0.00       0.21      26.15        1.83     0.38   0.869
  S7                        30.10       0.00       0.00       0.31      25.96        0.85     0.19   0.862
  S8                        30.10       0.00       0.00       0.16      26.32        2.81     0.52   0.874
  S9                        30.10       0.00       0.00       0.28      20.72        3.40     0.53   0.688
  S10                       30.10       0.00       0.00       0.31      26.38        0.72     0.17   0.876
  S11                       30.10       0.00       0.00       0.31      24.53        2.27     0.45   0.815
  S12                       30.10       0.00       0.00       0.21      25.03        2.65     0.48   0.831
  S13                       30.10       0.00       0.00       0.21      25.80        2.60     0.51   0.857
  S14                       30.10       0.00       0.00       0.31      21.26        2.45     0.40   0.706
  S15                       30.10       0.00       0.00       0.26      24.09        2.15     0.39   0.800
  
  
  ******************
  Node Depth Summary
  ******************
  
  ---------------------------------------------------------------------------------
                                 Average  Maximum  Maximum  Time of Max    Reported
                                   Depth    Depth      HGL   Occurrence   Max Depth
  Node                 Type       Meters   Meters   Meters  days hr:min      Meters
  ---------------------------------------------------------------------------------
  J0                   JUNCTION     0.08     0.22    31.21     0  01:55        0.21
  J1                   JUNCTION     0.04     0.18    29.17     0  01:55        0.18
  J2                   JUNCTION     0.11     0.32    26.31     0  01:58        0.32
  J3                   JUNCTION     0.04     0.12    31.11     0  01:56        0.11
  J4                   JUNCTION     0.04     0.12    34.11     0  01:55        0.12
  J5                   JUNCTION     0.08     0.23    29.22     0  01:55        0.23
  J6                   JUNCTION     0.18     0.46    24.25     0  01:59        0.46
  J7                   JUNCTION     0.08     0.18    28.57     0  01:55        0.17
  J8                   JUNCTION     0.09     0.19    30.18     0  01:55        0.19
  J9                   JUNCTION     0.09     0.21    28.90     0  01:56        0.20
  J10                  JUNCTION     0.15     0.38    26.37     0  01:56        0.37
  J11                  JUNCTION     0.18     0.49    26.18     0  01:58        0.48
  J12                  JUNCTION     0.13     0.33    23.12     0  02:01        0.32
  J13                  JUNCTION     0.15     0.42    25.71     0  01:59        0.42
  J14                  JUNCTION     0.12     0.29    24.88     0  01:56        0.29
  J15                  JUNCTION     0.13     0.32    24.51     0  01:56        0.31
  J16                  JUNCTION     0.10     0.25    23.64     0  01:58        0.25
  J17                  JUNCTION     0.14     0.36    22.45     0  02:00        0.36
  J18                  JUNCTION     0.31     0.78    16.78     0  02:02        0.77
  J20                  JUNCTION     0.15     0.38    18.08     0  02:01        0.37
  J21                  JUNCTION     0.15     0.36    19.36     0  02:00        0.36
  J23                  JUNCTION     0.09     0.22    22.51     0  01:55        0.22
  J24                  JUNCTION     0.11     0.32    21.21     0  01:56        0.31
  J25                  JUNCTION     0.06     0.17    30.36     0  01:56        0.16
  J19                  OUTFALL      0.30     0.78    16.28     0  02:03        0.77
  
  
  *******************
  Node Inflow Summary
  *******************
  
  -------------------------------------------------------------------------------------------------
                                  Maximum  Maximum                  Lateral       Total        Flow
                                  Lateral    Total  Time of Max      Inflow      Inflow     Balance
                                   Inflow   Inflow   Occurrence      Volume      Volume       Error
  Node                 Type           CMS      CMS  days hr:min    10^6 ltr    10^6 ltr     Percent
  -------------------------------------------------------------------------------------------------
  J0                   JUNCTION     0.350    0.350     0  01:55         1.8         1.8      -0.388
  J1                   JUNCTION     0.205    0.205     0  01:55       0.631       0.631      -0.056
  J2                   JUNCTION     0.000    0.648     0  01:55           0        2.84      -0.344
  J3                   JUNCTION     0.000    0.102     0  01:55           0        0.41       0.149
  J4                   JUNCTION     0.103    0.103     0  01:55        0.41        0.41      -0.044
  J5                   JUNCTION     0.378    0.378     0  01:55        1.82        1.82       0.037
  J6                   JUNCTION     0.000    1.222     0  01:57           0        6.38      -0.022
  J7                   JUNCTION     0.242    0.242     0  01:55         1.7         1.7       0.089
  J8                   JUNCTION     0.192    0.192     0  01:55        1.28        1.28       0.067
  J9                   JUNCTION     0.171    0.361     0  01:55       0.721           2       0.116
  J10                  JUNCTION     0.448    0.448     0  01:55        2.27        2.27       0.120
  J11                  JUNCTION     0.521    1.141     0  01:56        2.81        5.93       0.199
  J12                  JUNCTION     0.000    1.741     0  02:00           0        9.78      -0.147
  J13                  JUNCTION     0.000    1.127     0  01:58           0        5.92       0.104
  J14                  JUNCTION     0.529    0.529     0  02:00         3.4         3.4       0.135
  J15                  JUNCTION     0.405    0.405     0  01:55        2.45        2.45       0.102
  J16                  JUNCTION     0.000    0.762     0  01:56           0        4.45       0.283
  J17                  JUNCTION     0.479    1.604     0  01:59        2.65        8.56       0.096
  J18                  JUNCTION     0.000    4.910     0  02:01           0        27.5       0.213
  J20                  JUNCTION     0.000    1.600     0  02:00           0        9.15       0.196
  J21                  JUNCTION     0.000    1.124     0  01:58           0        6.58       0.387
  J23                  JUNCTION     0.395    0.395     0  01:55        2.15        2.15       0.031
  J24                  JUNCTION     0.514    0.514     0  01:55         2.6         2.6       0.039
  J25                  JUNCTION     0.191    0.191     0  01:55       0.851       0.851       0.026
  J19                  OUTFALL      0.000    4.911     0  02:03           0        27.4       0.000
  
  
  **********************
  Node Surcharge Summary
  **********************
  
  No nodes were surcharged.
  
  
  *********************
  Node Flooding Summary
  *********************
  
  No nodes were flooded.
  
  
  ***********************
  Outfall Loading Summary
  ***********************
  
  -----------------------------------------------------------
                         Flow       Avg       Max       Total
                         Freq      Flow      Flow      Volume
  Outfall Node           Pcnt       CMS       CMS    10^6 ltr
  -----------------------------------------------------------
  J19                  100.00     0.953     4.911      27.414
  -----------------------------------------------------------
  System               100.00     0.953     4.911      27.414
  
  
  ********************
  Link Flow Summary
  ********************
  
  -----------------------------------------------------------------------------
                                 Maximum  Time of Max   Maximum    Max/    Max/
                                  |Flow|   Occurrence   |Veloc|    Full    Full
  Link                 Type          CMS  days hr:min     m/sec    Flow   Depth
  -----------------------------------------------------------------------------
  C0                   CONDUIT     0.350     0  01:55      4.43    0.21    0.38
  C1                   CONDUIT     0.205     0  01:55      1.90    0.20    0.41
  C2                   CONDUIT     0.098     0  01:57      0.88    0.05    0.27
  C3                   CONDUIT     0.102     0  01:55      2.51    0.09    0.20
  C4                   CONDUIT     0.622     0  01:58      1.97    0.16    0.32
  C5                   CONDUIT     0.377     0  01:56      2.11    0.24    0.49
  C6                   CONDUIT     0.187     0  01:56      1.00    0.10    0.41
  C7                   CONDUIT     1.213     0  02:00      2.52    0.08    0.16
  C8                   CONDUIT     0.242     0  01:55      1.52    0.14    0.45
  C9                   CONDUIT     0.192     0  01:55      2.09    0.17    0.29
  C10                  CONDUIT     0.354     0  01:56      2.67    0.10    0.23
  C11                  CONDUIT     0.435     0  01:56      1.03    0.14    0.29
  C12                  CONDUIT     1.729     0  02:01      2.59    0.03    0.18
  C13                  CONDUIT     1.601     0  02:00      2.66    0.13    0.38
  C14                  CONDUIT     1.127     0  01:58      2.52    0.23    0.30
  C16                  CONDUIT     1.128     0  01:59      3.28    0.20    0.29
  C17                  CONDUIT     0.511     0  01:56      2.62    0.33    0.43
  C18                  CONDUIT     1.589     0  02:02      1.67    0.03    0.19
  C19                  CONDUIT     0.737     0  01:58      1.99    0.01    0.10
  C20                  CONDUIT     1.102     0  02:01      2.20    0.03    0.12
  C21                  CONDUIT     0.395     0  01:55      2.23    0.11    0.29
  C23                  CONDUIT     4.911     0  02:03      3.66    0.10    0.22
  C24                  CONDUIT     0.408     0  01:56      2.14    0.18    0.26
  C22                  CONDUIT     0.528     0  02:00      2.23    0.09    0.22
  
  
  ***************************
  Flow Classification Summary
  ***************************
  
  -------------------------------------------------------------------------------------
                      Adjusted    ---------- Fraction of Time in Flow Class ---------- 
                       /Actual         Up    Down  Sub   Sup   Up    Down  Norm  Inlet 
  Conduit               Length    Dry  Dry   Dry   Crit  Crit  Crit  Crit  Ltd   Ctrl  
  -------------------------------------------------------------------------------------
  C0                      1.00   0.00  0.00  0.00  0.04  0.96  0.00  0.00  1.00  0.00
  C1                      1.00   0.00  0.01  0.00  0.76  0.23  0.00  0.00  0.99  0.00
  C2                      1.00   0.00  0.01  0.00  0.99  0.00  0.00  0.00  0.99  0.00
  C3                      1.00   0.01  0.00  0.00  0.01  0.98  0.00  0.00  0.87  0.00
  C4                      1.00   0.00  0.00  0.00  0.72  0.28  0.00  0.00  1.00  0.00
  C5                      1.00   0.00  0.01  0.00  0.59  0.40  0.00  0.00  0.99  0.00
  C6                      1.00   0.01  0.00  0.00  0.97  0.02  0.00  0.00  0.99  0.00
  C7                      1.00   0.00  0.00  0.00  0.00  1.00  0.00  0.00  0.00  0.00
  C8                      1.00   0.00  0.01  0.00  0.30  0.69  0.00  0.00  0.99  0.00
  C9                      1.00   0.01  0.00  0.00  0.02  0.97  0.00  0.00  0.39  0.00
  C10                     1.00   0.01  0.00  0.00  0.01  0.98  0.00  0.00  0.93  0.00
  C11                     1.00   0.01  0.00  0.00  0.99  0.00  0.00  0.00  0.94  0.00
  C12                     1.00   0.00  0.00  0.00  0.93  0.07  0.00  0.00  1.00  0.00
  C13                     1.00   0.00  0.01  0.00  0.44  0.54  0.00  0.00  0.99  0.00
  C14                     1.00   0.01  0.00  0.00  0.03  0.96  0.00  0.00  0.11  0.00
  C16                     1.00   0.01  0.00  0.00  0.04  0.95  0.00  0.00  0.03  0.00
  C17                     1.00   0.01  0.00  0.00  0.33  0.66  0.00  0.00  0.91  0.00
  C18                     1.00   0.00  0.01  0.00  0.99  0.00  0.00  0.00  0.99  0.00
  C19                     1.00   0.01  0.00  0.00  0.04  0.95  0.00  0.00  0.99  0.00
  C20                     1.00   0.01  0.00  0.00  0.05  0.94  0.00  0.00  0.36  0.00
  C21                     1.00   0.01  0.00  0.00  0.33  0.66  0.00  0.00  0.95  0.00
  C23                     1.00   0.00  0.00  0.00  0.00  1.00  0.00  0.00  0.66  0.00
  C24                     1.00   0.01  0.00  0.00  0.02  0.97  0.00  0.00  0.00  0.00
  C22                     1.00   0.00  0.01  0.00  0.04  0.95  0.00  0.00  0.93  0.00
  
  
  *************************
  Conduit Surcharge Summary
  *************************
  
  No conduits were surcharged.
  
  
  ********************
  Subcatchment Results
  ********************
  
  <<< Subcatchment S1 >>>
  ---------------------------------------------------
  Date        Time        Precip.    Losses    Runoff
                            mm/hr     mm/hr       CMS
  ---------------------------------------------------
   07/10/2005 17:15:00      1.200     0.104    0.0000
   07/10/2005 17:20:00      3.600     0.000    0.0000
   07/10/2005 17:25:00      7.200     0.000    0.0003
   07/10/2005 17:30:00     10.800     0.000    0.0013
   07/10/2005 17:35:00      6.000     0.000    0.0045
   07/10/2005 17:40:00      3.600     0.000    0.0078
   07/10/2005 17:45:00      2.400     0.088    0.0095
   07/10/2005 17:50:00      3.600     0.000    0.0099
   07/10/2005 17:55:00      3.600     0.000    0.0115
   07/10/2005 18:00:00      3.600     0.000    0.0129
   07/10/2005 18:05:00      8.400     0.000    0.0142
   07/10/2005 18:10:00     21.600     0.000    0.0210
   07/10/2005 18:15:00     12.000     0.000    0.0472
   07/10/2005 18:20:00     24.000     0.000    0.0533
   07/10/2005 18:25:00     24.000     0.000    0.0804
   07/10/2005 18:30:00      7.200     0.000    0.1007
   07/10/2005 18:35:00     18.000     0.000    0.0798
   07/10/2005 18:40:00      4.800     0.000    0.0886
   07/10/2005 18:45:00     10.800     0.000    0.0688
   07/10/2005 18:50:00     25.200     0.000    0.0676
   07/10/2005 18:55:00     28.800     0.000    0.0952
   07/10/2005 19:00:00     54.000     0.000    0.1231
   07/10/2005 19:05:00     21.600     0.000    0.2050
   07/10/2005 19:10:00     10.800     0.000    0.1716
   07/10/2005 19:15:00      2.400     0.081    0.1293
   07/10/2005 19:20:00      1.200     0.097    0.0891
   07/10/2005 19:25:00      0.000     0.000    0.0641
   07/10/2005 19:30:00      0.000     0.000    0.0470
   07/10/2005 19:35:00      1.200     0.094    0.0358
   07/10/2005 19:40:00      0.000     0.000    0.0297
   07/10/2005 19:45:00      0.000     0.000    0.0238
   07/10/2005 19:50:00      0.000     0.000    0.0195
   07/10/2005 19:55:00      1.200     0.092    0.0162
   07/10/2005 20:00:00      8.400     0.000    0.0148
   07/10/2005 20:05:00      7.200     0.000    0.0219
   07/10/2005 20:10:00      2.400     0.053    0.0267
   07/10/2005 20:15:00      1.200     0.088    0.0243
   07/10/2005 20:20:00      2.400     0.043    0.0209
   07/10/2005 20:25:00      3.600     0.000    0.0198
   07/10/2005 20:30:00      3.600     0.000    0.0204
   07/10/2005 20:35:00      2.400     0.040    0.0208
   07/10/2005 20:40:00      1.200     0.083    0.0197
   07/10/2005 20:45:00      1.200     0.081    0.0174
   07/10/2005 20:50:00      0.000     0.000    0.0156
   07/10/2005 20:55:00      1.200     0.079    0.0130
   07/10/2005 21:00:00      1.200     0.077    0.0121
   07/10/2005 21:05:00      1.200     0.075    0.0114
   07/10/2005 21:10:00      1.200     0.073    0.0108
   07/10/2005 21:15:00      0.000     0.000    0.0103
   07/10/2005 21:20:00      0.000     0.000    0.0088
   07/10/2005 21:25:00      0.000     0.000    0.0076
   07/10/2005 21:30:00      0.000     0.000    0.0067
   07/10/2005 21:35:00      0.000     0.000    0.0059
   07/10/2005 21:40:00      0.000     0.000    0.0052
   07/10/2005 21:45:00      0.000     0.000    0.0046
   07/10/2005 21:50:00      0.000     0.000    0.0042
   07/10/2005 21:55:00      0.000     0.000    0.0038
   07/10/2005 22:00:00      0.000     0.000    0.0034
   07/10/2005 22:05:00      0.000     0.000    0.0031
   07/10/2005 22:10:00      0.000     0.000    0.0029
   07/10/2005 22:15:00      0.000     0.000    0.0026
   07/10/2005 22:20:00      0.000     0.000    0.0024
   07/10/2005 22:25:00      0.000     0.000    0.0022
   07/10/2005 22:30:00      0.000     0.000    0.0021
   07/10/2005 22:35:00      0.000     0.000    0.0019
   07/10/2005 22:40:00      0.000     0.000    0.0018
   07/10/2005 22:45:00      0.000     0.000    0.0017
   07/10/2005 22:50:00      0.000     0.000    0.0016
   07/10/2005 22:55:00      0.000     0.000    0.0015
   07/10/2005 23:00:00      0.000     0.000    0.0014
   07/10/2005 23:05:00      0.000     0.000    0.0013
   07/10/2005 23:10:00      0.000     0.000    0.0012
   07/10/2005 23:15:00      0.000     0.000    0.0011
   07/10/2005 23:20:00      0.000     0.000    0.0011
   07/10/2005 23:25:00      0.000     0.000    0.0010
   07/10/2005 23:30:00      0.000     0.000    0.0010
   07/10/2005 23:35:00      0.000     0.000    0.0009
   07/10/2005 23:40:00      0.000     0.000    0.0009
   07/10/2005 23:45:00      0.000     0.000    0.0008
   07/10/2005 23:50:00      0.000     0.000    0.0008
   07/10/2005 23:55:00      0.000     0.000    0.0007
   07/11/2005 00:00:00      0.000     0.000    0.0007
   07/11/2005 00:05:00      0.000     0.000    0.0007
   07/11/2005 00:10:00      0.000     0.000    0.0006
   07/11/2005 00:15:00      0.000     0.000    0.0006
   07/11/2005 00:20:00      0.000     0.000    0.0006
   07/11/2005 00:25:00      0.000     0.000    0.0006
   07/11/2005 00:30:00      0.000     0.000    0.0005
   07/11/2005 00:35:00      0.000     0.000    0.0005
   07/11/2005 00:40:00      0.000     0.000    0.0005
   07/11/2005 00:45:00      0.000     0.000    0.0005
   07/11/2005 00:50:00      0.000     0.000    0.0005
   07/11/2005 00:55:00      0.000     0.000    0.0004
   07/11/2005 01:00:00      0.000     0.000    0.0004
   07/11/2005 01:05:00      0.000     0.000    0.0004
   07/11/2005 01:10:00      0.000     0.000    0.0004
   07/11/2005 01:15:00      0.000     0.000    0.0004
   07/11/2005 01:20:00      0.000     0.000    0.0004
   07/11/2005 01:25:00      0.000     0.000    0.0004
   07/11/2005 01:30:00      0.000     0.000    0.0003
   07/11/2005 01:35:00      0.000     0.000    0.0003
   07/11/2005 01:40:00      0.000     0.000    0.0003
   07/11/2005 01:45:00      0.000     0.000    0.0003
   07/11/2005 01:50:00      0.000     0.000    0.0003
   07/11/2005 01:55:00      0.000     0.000    0.0003
  
  
  <<< Subcatchment S2 >>>
  ---------------------------------------------------
  Date        Time        Precip.    Losses    Runoff
                            mm/hr     mm/hr       CMS
  ---------------------------------------------------
   07/10/2005 17:15:00      1.200     0.260    0.0000
   07/10/2005 17:20:00      3.600     0.000    0.0000
   07/10/2005 17:25:00      7.200     0.000    0.0000
   07/10/2005 17:30:00     10.800     0.000    0.0014
   07/10/2005 17:35:00      6.000     0.000    0.0049
   07/10/2005 17:40:00      3.600     0.000    0.0089
   07/10/2005 17:45:00      2.400     0.219    0.0114
   07/10/2005 17:50:00      3.600     0.000    0.0126
   07/10/2005 17:55:00      3.600     0.000    0.0153
   07/10/2005 18:00:00      3.600     0.000    0.0178
   07/10/2005 18:05:00      8.400     0.000    0.0203
   07/10/2005 18:10:00     21.600     0.000    0.0296
   07/10/2005 18:15:00     12.000     0.000    0.0633
   07/10/2005 18:20:00     24.000     0.000    0.0769
   07/10/2005 18:25:00     24.000     0.000    0.1177
   07/10/2005 18:30:00      7.200     0.000    0.1549
   07/10/2005 18:35:00     18.000     0.000    0.1394
   07/10/2005 18:40:00      4.800     0.000    0.1576
   07/10/2005 18:45:00     10.800     0.000    0.1365
   07/10/2005 18:50:00     25.200     0.000    0.1371
   07/10/2005 18:55:00     28.800     0.000    0.1780
   07/10/2005 19:00:00     54.000     0.000    0.2239
   07/10/2005 19:05:00     21.600     0.000    0.3499
   07/10/2005 19:10:00     10.800     0.000    0.3313
   07/10/2005 19:15:00      2.400     0.202    0.2839
   07/10/2005 19:20:00      1.200     0.242    0.2269
   07/10/2005 19:25:00      0.000     0.000    0.1855
   07/10/2005 19:30:00      0.000     0.000    0.1538
   07/10/2005 19:35:00      1.200     0.235    0.1310
   07/10/2005 19:40:00      0.000     0.000    0.1165
   07/10/2005 19:45:00      0.000     0.000    0.1029
   07/10/2005 19:50:00      0.000     0.000    0.0921
   07/10/2005 19:55:00      1.200     0.229    0.0835
   07/10/2005 20:00:00      8.400     0.000    0.0784
   07/10/2005 20:05:00      7.200     0.000    0.0879
   07/10/2005 20:10:00      2.400     0.134    0.0941
   07/10/2005 20:15:00      1.200     0.219    0.0895
   07/10/2005 20:20:00      2.400     0.107    0.0833
   07/10/2005 20:25:00      3.600     0.000    0.0804
   07/10/2005 20:30:00      3.600     0.000    0.0802
   07/10/2005 20:35:00      2.400     0.099    0.0801
   07/10/2005 20:40:00      1.200     0.208    0.0775
   07/10/2005 20:45:00      1.200     0.203    0.0731
   07/10/2005 20:50:00      0.000     0.000    0.0693
   07/10/2005 20:55:00      1.200     0.198    0.0640
   07/10/2005 21:00:00      1.200     0.192    0.0614
   07/10/2005 21:05:00      1.200     0.187    0.0591
   07/10/2005 21:10:00      1.200     0.183    0.0570
   07/10/2005 21:15:00      0.000     0.000    0.0551
   07/10/2005 21:20:00      0.000     0.000    0.0517
   07/10/2005 21:25:00      0.000     0.000    0.0487
   07/10/2005 21:30:00      0.000     0.000    0.0460
   07/10/2005 21:35:00      0.000     0.000    0.0437
   07/10/2005 21:40:00      0.000     0.000    0.0415
   07/10/2005 21:45:00      0.000     0.000    0.0396
   07/10/2005 21:50:00      0.000     0.000    0.0378
   07/10/2005 21:55:00      0.000     0.000    0.0362
   07/10/2005 22:00:00      0.000     0.000    0.0347
   07/10/2005 22:05:00      0.000     0.000    0.0333
   07/10/2005 22:10:00      0.000     0.000    0.0320
   07/10/2005 22:15:00      0.000     0.000    0.0308
   07/10/2005 22:20:00      0.000     0.000    0.0297
   07/10/2005 22:25:00      0.000     0.000    0.0287
   07/10/2005 22:30:00      0.000     0.000    0.0277
   07/10/2005 22:35:00      0.000     0.000    0.0268
   07/10/2005 22:40:00      0.000     0.000    0.0259
   07/10/2005 22:45:00      0.000     0.000    0.0251
   07/10/2005 22:50:00      0.000     0.000    0.0243
   07/10/2005 22:55:00      0.000     0.000    0.0236
   07/10/2005 23:00:00      0.000     0.000    0.0229
   07/10/2005 23:05:00      0.000     0.000    0.0222
   07/10/2005 23:10:00      0.000     0.000    0.0215
   07/10/2005 23:15:00      0.000     0.000    0.0209
   07/10/2005 23:20:00      0.000     0.000    0.0203
   07/10/2005 23:25:00      0.000     0.000    0.0198
   07/10/2005 23:30:00      0.000     0.000    0.0193
   07/10/2005 23:35:00      0.000     0.000    0.0187
   07/10/2005 23:40:00      0.000     0.000    0.0183
   07/10/2005 23:45:00      0.000     0.000    0.0178
   07/10/2005 23:50:00      0.000     0.000    0.0173
   07/10/2005 23:55:00      0.000     0.000    0.0169
   07/11/2005 00:00:00      0.000     0.000    0.0165
   07/11/2005 00:05:00      0.000     0.000    0.0161
   07/11/2005 00:10:00      0.000     0.000    0.0157
   07/11/2005 00:15:00      0.000     0.000    0.0153
   07/11/2005 00:20:00      0.000     0.000    0.0150
   07/11/2005 00:25:00      0.000     0.000    0.0146
   07/11/2005 00:30:00      0.000     0.000    0.0143
   07/11/2005 00:35:00      0.000     0.000    0.0139
   07/11/2005 00:40:00      0.000     0.000    0.0136
   07/11/2005 00:45:00      0.000     0.000    0.0133
   07/11/2005 00:50:00      0.000     0.000    0.0130
   07/11/2005 00:55:00      0.000     0.000    0.0127
   07/11/2005 01:00:00      0.000     0.000    0.0125
   07/11/2005 01:05:00      0.000     0.000    0.0122
   07/11/2005 01:10:00      0.000     0.000    0.0119
   07/11/2005 01:15:00      0.000     0.000    0.0117
   07/11/2005 01:20:00      0.000     0.000    0.0115
   07/11/2005 01:25:00      0.000     0.000    0.0112
   07/11/2005 01:30:00      0.000     0.000    0.0110
   07/11/2005 01:35:00      0.000     0.000    0.0108
   07/11/2005 01:40:00      0.000     0.000    0.0106
   07/11/2005 01:45:00      0.000     0.000    0.0103
   07/11/2005 01:50:00      0.000     0.000    0.0101
   07/11/2005 01:55:00      0.000     0.000    0.0099
  
  
  <<< Subcatchment S3 >>>
  ---------------------------------------------------
  Date        Time        Precip.    Losses    Runoff
                            mm/hr     mm/hr       CMS
  ---------------------------------------------------
   07/10/2005 17:15:00      1.200     0.364    0.0000
   07/10/2005 17:20:00      3.600     0.000    0.0000
   07/10/2005 17:25:00      7.200     0.000    0.0003
   07/10/2005 17:30:00     10.800     0.000    0.0010
   07/10/2005 17:35:00      6.000     0.000    0.0031
   07/10/2005 17:40:00      3.600     0.000    0.0048
   07/10/2005 17:45:00      2.400     0.307    0.0048
   07/10/2005 17:50:00      3.600     0.000    0.0042
   07/10/2005 17:55:00      3.600     0.000    0.0046
   07/10/2005 18:00:00      3.600     0.000    0.0050
   07/10/2005 18:05:00      8.400     0.000    0.0053
   07/10/2005 18:10:00     21.600     0.000    0.0090
   07/10/2005 18:15:00     12.000     0.000    0.0233
   07/10/2005 18:20:00     24.000     0.000    0.0222
   07/10/2005 18:25:00     24.000     0.000    0.0350
   07/10/2005 18:30:00      7.200     0.000    0.0423
   07/10/2005 18:35:00     18.000     0.000    0.0297
   07/10/2005 18:40:00      4.800     0.000    0.0370
   07/10/2005 18:45:00     10.800     0.000    0.0281
   07/10/2005 18:50:00     25.200     0.000    0.0305
   07/10/2005 18:55:00     28.800     0.000    0.0477
   07/10/2005 19:00:00     54.000     0.000    0.0615
   07/10/2005 19:05:00     21.600     0.000    0.1026
   07/10/2005 19:10:00     10.800     0.000    0.0794
   07/10/2005 19:15:00      2.400     0.283    0.0631
   07/10/2005 19:20:00      1.200     0.339    0.0487
   07/10/2005 19:25:00      0.000     0.000    0.0406
   07/10/2005 19:30:00      0.000     0.000    0.0347
   07/10/2005 19:35:00      1.200     0.330    0.0305
   07/10/2005 19:40:00      0.000     0.000    0.0279
   07/10/2005 19:45:00      0.000     0.000    0.0250
   07/10/2005 19:50:00      0.000     0.000    0.0226
   07/10/2005 19:55:00      1.200     0.321    0.0205
   07/10/2005 20:00:00      8.400     0.000    0.0193
   07/10/2005 20:05:00      7.200     0.000    0.0235
   07/10/2005 20:10:00      2.400     0.187    0.0259
   07/10/2005 20:15:00      1.200     0.307    0.0231
   07/10/2005 20:20:00      2.400     0.150    0.0204
   07/10/2005 20:25:00      3.600     0.000    0.0194
   07/10/2005 20:30:00      3.600     0.000    0.0195
   07/10/2005 20:35:00      2.400     0.139    0.0195
   07/10/2005 20:40:00      1.200     0.292    0.0184
   07/10/2005 20:45:00      1.200     0.284    0.0166
   07/10/2005 20:50:00      0.000     0.000    0.0153
   07/10/2005 20:55:00      1.200     0.277    0.0137
   07/10/2005 21:00:00      1.200     0.269    0.0130
   07/10/2005 21:05:00      1.200     0.262    0.0124
   07/10/2005 21:10:00      1.200     0.256    0.0119
   07/10/2005 21:15:00      0.000     0.000    0.0114
   07/10/2005 21:20:00      0.000     0.000    0.0103
   07/10/2005 21:25:00      0.000     0.000    0.0095
   07/10/2005 21:30:00      0.000     0.000    0.0088
   07/10/2005 21:35:00      0.000     0.000    0.0082
   07/10/2005 21:40:00      0.000     0.000    0.0076
   07/10/2005 21:45:00      0.000     0.000    0.0072
   07/10/2005 21:50:00      0.000     0.000    0.0067
   07/10/2005 21:55:00      0.000     0.000    0.0064
   07/10/2005 22:00:00      0.000     0.000    0.0060
   07/10/2005 22:05:00      0.000     0.000    0.0057
   07/10/2005 22:10:00      0.000     0.000    0.0054
   07/10/2005 22:15:00      0.000     0.000    0.0051
   07/10/2005 22:20:00      0.000     0.000    0.0049
   07/10/2005 22:25:00      0.000     0.000    0.0046
   07/10/2005 22:30:00      0.000     0.000    0.0044
   07/10/2005 22:35:00      0.000     0.000    0.0042
   07/10/2005 22:40:00      0.000     0.000    0.0040
   07/10/2005 22:45:00      0.000     0.000    0.0038
   07/10/2005 22:50:00      0.000     0.000    0.0037
   07/10/2005 22:55:00      0.000     0.000    0.0035
   07/10/2005 23:00:00      0.000     0.000    0.0034
   07/10/2005 23:05:00      0.000     0.000    0.0032
   07/10/2005 23:10:00      0.000     0.000    0.0031
   07/10/2005 23:15:00      0.000     0.000    0.0030
   07/10/2005 23:20:00      0.000     0.000    0.0029
   07/10/2005 23:25:00      0.000     0.000    0.0028
   07/10/2005 23:30:00      0.000     0.000    0.0026
   07/10/2005 23:35:00      0.000     0.000    0.0026
   07/10/2005 23:40:00      0.000     0.000    0.0025
   07/10/2005 23:45:00      0.000     0.000    0.0024
   07/10/2005 23:50:00      0.000     0.000    0.0023
   07/10/2005 23:55:00      0.000     0.000    0.0022
   07/11/2005 00:00:00      0.000     0.000    0.0021
   07/11/2005 00:05:00      0.000     0.000    0.0021
   07/11/2005 00:10:00      0.000     0.000    0.0020
   07/11/2005 00:15:00      0.000     0.000    0.0019
   07/11/2005 00:20:00      0.000     0.000    0.0019
   07/11/2005 00:25:00      0.000     0.000    0.0018
   07/11/2005 00:30:00      0.000     0.000    0.0017
   07/11/2005 00:35:00      0.000     0.000    0.0017
   07/11/2005 00:40:00      0.000     0.000    0.0016
   07/11/2005 00:45:00      0.000     0.000    0.0016
   07/11/2005 00:50:00      0.000     0.000    0.0015
   07/11/2005 00:55:00      0.000     0.000    0.0015
   07/11/2005 01:00:00      0.000     0.000    0.0014
   07/11/2005 01:05:00      0.000     0.000    0.0014
   07/11/2005 01:10:00      0.000     0.000    0.0014
   07/11/2005 01:15:00      0.000     0.000    0.0013
   07/11/2005 01:20:00      0.000     0.000    0.0013
   07/11/2005 01:25:00      0.000     0.000    0.0012
   07/11/2005 01:30:00      0.000     0.000    0.0012
   07/11/2005 01:35:00      0.000     0.000    0.0012
   07/11/2005 01:40:00      0.000     0.000    0.0011
   07/11/2005 01:45:00      0.000     0.000    0.0011
   07/11/2005 01:50:00      0.000     0.000    0.0011
   07/11/2005 01:55:00      0.000     0.000    0.0011
  
  
  <<< Subcatchment S4 >>>
  ---------------------------------------------------
  Date        Time        Precip.    Losses    Runoff
                            mm/hr     mm/hr       CMS
  ---------------------------------------------------
   07/10/2005 17:15:00      1.200     0.416    0.0000
   07/10/2005 17:20:00      3.600     0.000    0.0000
   07/10/2005 17:25:00      7.200     0.000    0.0000
   07/10/2005 17:30:00     10.800     0.000    0.0013
   07/10/2005 17:35:00      6.000     0.000    0.0042
   07/10/2005 17:40:00      3.600     0.000    0.0071
   07/10/2005 17:45:00      2.400     0.351    0.0083
   07/10/2005 17:50:00      3.600     0.000    0.0083
   07/10/2005 17:55:00      3.600     0.000    0.0095
   07/10/2005 18:00:00      3.600     0.000    0.0105
   07/10/2005 18:05:00      8.400     0.000    0.0114
   07/10/2005 18:10:00     21.600     0.000    0.0172
   07/10/2005 18:15:00     12.000     0.000    0.0403
   07/10/2005 18:20:00     24.000     0.000    0.0439
   07/10/2005 18:25:00     24.000     0.000    0.0669
   07/10/2005 18:30:00      7.200     0.000    0.0835
   07/10/2005 18:35:00     18.000     0.000    0.0650
   07/10/2005 18:40:00      4.800     0.000    0.0747
   07/10/2005 18:45:00     10.800     0.000    0.0596
   07/10/2005 18:50:00     25.200     0.000    0.0614
   07/10/2005 18:55:00     28.800     0.000    0.0889
   07/10/2005 19:00:00     54.000     0.000    0.1162
   07/10/2005 19:05:00     21.600     0.000    0.1922
   07/10/2005 19:10:00     10.800     0.000    0.1654
   07/10/2005 19:15:00      2.400     0.324    0.1354
   07/10/2005 19:20:00      1.200     0.387    0.1072
   07/10/2005 19:25:00      0.000     0.000    0.0908
   07/10/2005 19:30:00      0.000     0.000    0.0797
   07/10/2005 19:35:00      1.200     0.377    0.0725
   07/10/2005 19:40:00      0.000     0.000    0.0687
   07/10/2005 19:45:00      0.000     0.000    0.0644
   07/10/2005 19:50:00      0.000     0.000    0.0611
   07/10/2005 19:55:00      1.200     0.367    0.0583
   07/10/2005 20:00:00      8.400     0.000    0.0570
   07/10/2005 20:05:00      7.200     0.000    0.0643
   07/10/2005 20:10:00      2.400     0.214    0.0695
   07/10/2005 20:15:00      1.200     0.351    0.0671
   07/10/2005 20:20:00      2.400     0.172    0.0636
   07/10/2005 20:25:00      3.600     0.000    0.0625
   07/10/2005 20:30:00      3.600     0.000    0.0630
   07/10/2005 20:35:00      2.400     0.159    0.0635
   07/10/2005 20:40:00      1.200     0.333    0.0622
   07/10/2005 20:45:00      1.200     0.324    0.0595
   07/10/2005 20:50:00      0.000     0.000    0.0574
   07/10/2005 20:55:00      1.200     0.316    0.0544
   07/10/2005 21:00:00      1.200     0.308    0.0530
   07/10/2005 21:05:00      1.200     0.300    0.0518
   07/10/2005 21:10:00      1.200     0.292    0.0507
   07/10/2005 21:15:00      0.000     0.000    0.0496
   07/10/2005 21:20:00      0.000     0.000    0.0476
   07/10/2005 21:25:00      0.000     0.000    0.0458
   07/10/2005 21:30:00      0.000     0.000    0.0442
   07/10/2005 21:35:00      0.000     0.000    0.0428
   07/10/2005 21:40:00      0.000     0.000    0.0414
   07/10/2005 21:45:00      0.000     0.000    0.0402
   07/10/2005 21:50:00      0.000     0.000    0.0391
   07/10/2005 21:55:00      0.000     0.000    0.0380
   07/10/2005 22:00:00      0.000     0.000    0.0370
   07/10/2005 22:05:00      0.000     0.000    0.0361
   07/10/2005 22:10:00      0.000     0.000    0.0352
   07/10/2005 22:15:00      0.000     0.000    0.0343
   07/10/2005 22:20:00      0.000     0.000    0.0335
   07/10/2005 22:25:00      0.000     0.000    0.0327
   07/10/2005 22:30:00      0.000     0.000    0.0319
   07/10/2005 22:35:00      0.000     0.000    0.0312
   07/10/2005 22:40:00      0.000     0.000    0.0305
   07/10/2005 22:45:00      0.000     0.000    0.0298
   07/10/2005 22:50:00      0.000     0.000    0.0291
   07/10/2005 22:55:00      0.000     0.000    0.0285
   07/10/2005 23:00:00      0.000     0.000    0.0279
   07/10/2005 23:05:00      0.000     0.000    0.0273
   07/10/2005 23:10:00      0.000     0.000    0.0267
   07/10/2005 23:15:00      0.000     0.000    0.0261
   07/10/2005 23:20:00      0.000     0.000    0.0256
   07/10/2005 23:25:00      0.000     0.000    0.0250
   07/10/2005 23:30:00      0.000     0.000    0.0245
   07/10/2005 23:35:00      0.000     0.000    0.0240
   07/10/2005 23:40:00      0.000     0.000    0.0236
   07/10/2005 23:45:00      0.000     0.000    0.0231
   07/10/2005 23:50:00      0.000     0.000    0.0226
   07/10/2005 23:55:00      0.000     0.000    0.0222
   07/11/2005 00:00:00      0.000     0.000    0.0218
   07/11/2005 00:05:00      0.000     0.000    0.0214
   07/11/2005 00:10:00      0.000     0.000    0.0209
   07/11/2005 00:15:00      0.000     0.000    0.0206
   07/11/2005 00:20:00      0.000     0.000    0.0202
   07/11/2005 00:25:00      0.000     0.000    0.0198
   07/11/2005 00:30:00      0.000     0.000    0.0194
   07/11/2005 00:35:00      0.000     0.000    0.0191
   07/11/2005 00:40:00      0.000     0.000    0.0187
   07/11/2005 00:45:00      0.000     0.000    0.0184
   07/11/2005 00:50:00      0.000     0.000    0.0181
   07/11/2005 00:55:00      0.000     0.000    0.0177
   07/11/2005 01:00:00      0.000     0.000    0.0174
   07/11/2005 01:05:00      0.000     0.000    0.0171
   07/11/2005 01:10:00      0.000     0.000    0.0168
   07/11/2005 01:15:00      0.000     0.000    0.0165
   07/11/2005 01:20:00      0.000     0.000    0.0163
   07/11/2005 01:25:00      0.000     0.000    0.0160
   07/11/2005 01:30:00      0.000     0.000    0.0157
   07/11/2005 01:35:00      0.000     0.000    0.0155
   07/11/2005 01:40:00      0.000     0.000    0.0152
   07/11/2005 01:45:00      0.000     0.000    0.0149
   07/11/2005 01:50:00      0.000     0.000    0.0147
   07/11/2005 01:55:00      0.000     0.000    0.0145
  
  
  <<< Subcatchment S5 >>>
  ---------------------------------------------------
  Date        Time        Precip.    Losses    Runoff
                            mm/hr     mm/hr       CMS
  ---------------------------------------------------
   07/10/2005 17:15:00      1.200     0.416    0.0000
   07/10/2005 17:20:00      3.600     0.000    0.0000
   07/10/2005 17:25:00      7.200     0.000    0.0000
   07/10/2005 17:30:00     10.800     0.000    0.0013
   07/10/2005 17:35:00      6.000     0.000    0.0045
   07/10/2005 17:40:00      3.600     0.000    0.0079
   07/10/2005 17:45:00      2.400     0.351    0.0096
   07/10/2005 17:50:00      3.600     0.000    0.0101
   07/10/2005 17:55:00      3.600     0.000    0.0118
   07/10/2005 18:00:00      3.600     0.000    0.0133
   07/10/2005 18:05:00      8.400     0.000    0.0147
   07/10/2005 18:10:00     21.600     0.000    0.0218
   07/10/2005 18:15:00     12.000     0.000    0.0488
   07/10/2005 18:20:00     24.000     0.000    0.0558
   07/10/2005 18:25:00     24.000     0.000    0.0848
   07/10/2005 18:30:00      7.200     0.000    0.1079
   07/10/2005 18:35:00     18.000     0.000    0.0888
   07/10/2005 18:40:00      4.800     0.000    0.1003
   07/10/2005 18:45:00     10.800     0.000    0.0821
   07/10/2005 18:50:00     25.200     0.000    0.0831
   07/10/2005 18:55:00     28.800     0.000    0.1150
   07/10/2005 19:00:00     54.000     0.000    0.1487
   07/10/2005 19:05:00     21.600     0.000    0.2421
   07/10/2005 19:10:00     10.800     0.000    0.2167
   07/10/2005 19:15:00      2.400     0.324    0.1796
   07/10/2005 19:20:00      1.200     0.387    0.1419
   07/10/2005 19:25:00      0.000     0.000    0.1183
   07/10/2005 19:30:00      0.000     0.000    0.1018
   07/10/2005 19:35:00      1.200     0.377    0.0910
   07/10/2005 19:40:00      0.000     0.000    0.0852
   07/10/2005 19:45:00      0.000     0.000    0.0791
   07/10/2005 19:50:00      0.000     0.000    0.0745
   07/10/2005 19:55:00      1.200     0.367    0.0708
   07/10/2005 20:00:00      8.400     0.000    0.0692
   07/10/2005 20:05:00      7.200     0.000    0.0780
   07/10/2005 20:10:00      2.400     0.214    0.0843
   07/10/2005 20:15:00      1.200     0.351    0.0819
   07/10/2005 20:20:00      2.400     0.172    0.0782
   07/10/2005 20:25:00      3.600     0.000    0.0770
   07/10/2005 20:30:00      3.600     0.000    0.0779
   07/10/2005 20:35:00      2.400     0.159    0.0787
   07/10/2005 20:40:00      1.200     0.333    0.0775
   07/10/2005 20:45:00      1.200     0.324    0.0746
   07/10/2005 20:50:00      0.000     0.000    0.0723
   07/10/2005 20:55:00      1.200     0.316    0.0689
   07/10/2005 21:00:00      1.200     0.308    0.0674
   07/10/2005 21:05:00      1.200     0.300    0.0661
   07/10/2005 21:10:00      1.200     0.292    0.0649
   07/10/2005 21:15:00      0.000     0.000    0.0638
   07/10/2005 21:20:00      0.000     0.000    0.0615
   07/10/2005 21:25:00      0.000     0.000    0.0595
   07/10/2005 21:30:00      0.000     0.000    0.0577
   07/10/2005 21:35:00      0.000     0.000    0.0561
   07/10/2005 21:40:00      0.000     0.000    0.0546
   07/10/2005 21:45:00      0.000     0.000    0.0533
   07/10/2005 21:50:00      0.000     0.000    0.0520
   07/10/2005 21:55:00      0.000     0.000    0.0509
   07/10/2005 22:00:00      0.000     0.000    0.0497
   07/10/2005 22:05:00      0.000     0.000    0.0487
   07/10/2005 22:10:00      0.000     0.000    0.0477
   07/10/2005 22:15:00      0.000     0.000    0.0467
   07/10/2005 22:20:00      0.000     0.000    0.0458
   07/10/2005 22:25:00      0.000     0.000    0.0449
   07/10/2005 22:30:00      0.000     0.000    0.0441
   07/10/2005 22:35:00      0.000     0.000    0.0433
   07/10/2005 22:40:00      0.000     0.000    0.0425
   07/10/2005 22:45:00      0.000     0.000    0.0417
   07/10/2005 22:50:00      0.000     0.000    0.0410
   07/10/2005 22:55:00      0.000     0.000    0.0403
   07/10/2005 23:00:00      0.000     0.000    0.0396
   07/10/2005 23:05:00      0.000     0.000    0.0389
   07/10/2005 23:10:00      0.000     0.000    0.0383
   07/10/2005 23:15:00      0.000     0.000    0.0376
   07/10/2005 23:20:00      0.000     0.000    0.0370
   07/10/2005 23:25:00      0.000     0.000    0.0364
   07/10/2005 23:30:00      0.000     0.000    0.0358
   07/10/2005 23:35:00      0.000     0.000    0.0353
   07/10/2005 23:40:00      0.000     0.000    0.0347
   07/10/2005 23:45:00      0.000     0.000    0.0341
   07/10/2005 23:50:00      0.000     0.000    0.0336
   07/10/2005 23:55:00      0.000     0.000    0.0331
   07/11/2005 00:00:00      0.000     0.000    0.0326
   07/11/2005 00:05:00      0.000     0.000    0.0321
   07/11/2005 00:10:00      0.000     0.000    0.0316
   07/11/2005 00:15:00      0.000     0.000    0.0311
   07/11/2005 00:20:00      0.000     0.000    0.0307
   07/11/2005 00:25:00      0.000     0.000    0.0302
   07/11/2005 00:30:00      0.000     0.000    0.0298
   07/11/2005 00:35:00      0.000     0.000    0.0293
   07/11/2005 00:40:00      0.000     0.000    0.0289
   07/11/2005 00:45:00      0.000     0.000    0.0285
   07/11/2005 00:50:00      0.000     0.000    0.0281
   07/11/2005 00:55:00      0.000     0.000    0.0277
   07/11/2005 01:00:00      0.000     0.000    0.0273
   07/11/2005 01:05:00      0.000     0.000    0.0269
   07/11/2005 01:10:00      0.000     0.000    0.0265
   07/11/2005 01:15:00      0.000     0.000    0.0262
   07/11/2005 01:20:00      0.000     0.000    0.0258
   07/11/2005 01:25:00      0.000     0.000    0.0255
   07/11/2005 01:30:00      0.000     0.000    0.0251
   07/11/2005 01:35:00      0.000     0.000    0.0248
   07/11/2005 01:40:00      0.000     0.000    0.0244
   07/11/2005 01:45:00      0.000     0.000    0.0241
   07/11/2005 01:50:00      0.000     0.000    0.0238
   07/11/2005 01:55:00      0.000     0.000    0.0235
  
  
  <<< Subcatchment S6 >>>
  ---------------------------------------------------
  Date        Time        Precip.    Losses    Runoff
                            mm/hr     mm/hr       CMS
  ---------------------------------------------------
   07/10/2005 17:15:00      1.200     0.208    0.0000
   07/10/2005 17:20:00      3.600     0.000    0.0000
   07/10/2005 17:25:00      7.200     0.000    0.0000
   07/10/2005 17:30:00     10.800     0.000    0.0014
   07/10/2005 17:35:00      6.000     0.000    0.0049
   07/10/2005 17:40:00      3.600     0.000    0.0091
   07/10/2005 17:45:00      2.400     0.175    0.0117
   07/10/2005 17:50:00      3.600     0.000    0.0131
   07/10/2005 17:55:00      3.600     0.000    0.0159
   07/10/2005 18:00:00      3.600     0.000    0.0187
   07/10/2005 18:05:00      8.400     0.000    0.0214
   07/10/2005 18:10:00     21.600     0.000    0.0312
   07/10/2005 18:15:00     12.000     0.000    0.0663
   07/10/2005 18:20:00     24.000     0.000    0.0812
   07/10/2005 18:25:00     24.000     0.000    0.1247
   07/10/2005 18:30:00      7.200     0.000    0.1653
   07/10/2005 18:35:00     18.000     0.000    0.1514
   07/10/2005 18:40:00      4.800     0.000    0.1717
   07/10/2005 18:45:00     10.800     0.000    0.1507
   07/10/2005 18:50:00     25.200     0.000    0.1517
   07/10/2005 18:55:00     28.800     0.000    0.1950
   07/10/2005 19:00:00     54.000     0.000    0.2441
   07/10/2005 19:05:00     21.600     0.000    0.3778
   07/10/2005 19:10:00     10.800     0.000    0.3616
   07/10/2005 19:15:00      2.400     0.162    0.3128
   07/10/2005 19:20:00      1.200     0.193    0.2517
   07/10/2005 19:25:00      0.000     0.000    0.2061
   07/10/2005 19:30:00      0.000     0.000    0.1703
   07/10/2005 19:35:00      1.200     0.188    0.1440
   07/10/2005 19:40:00      0.000     0.000    0.1269
   07/10/2005 19:45:00      0.000     0.000    0.1109
   07/10/2005 19:50:00      0.000     0.000    0.0981
   07/10/2005 19:55:00      1.200     0.183    0.0878
   07/10/2005 20:00:00      8.400     0.000    0.0816
   07/10/2005 20:05:00      7.200     0.000    0.0910
   07/10/2005 20:10:00      2.400     0.107    0.0969
   07/10/2005 20:15:00      1.200     0.176    0.0916
   07/10/2005 20:20:00      2.400     0.086    0.0845
   07/10/2005 20:25:00      3.600     0.000    0.0810
   07/10/2005 20:30:00      3.600     0.000    0.0805
   07/10/2005 20:35:00      2.400     0.080    0.0799
   07/10/2005 20:40:00      1.200     0.167    0.0770
   07/10/2005 20:45:00      1.200     0.162    0.0721
   07/10/2005 20:50:00      0.000     0.000    0.0678
   07/10/2005 20:55:00      1.200     0.158    0.0621
   07/10/2005 21:00:00      1.200     0.154    0.0592
   07/10/2005 21:05:00      1.200     0.150    0.0566
   07/10/2005 21:10:00      1.200     0.146    0.0542
   07/10/2005 21:15:00      0.000     0.000    0.0521
   07/10/2005 21:20:00      0.000     0.000    0.0484
   07/10/2005 21:25:00      0.000     0.000    0.0452
   07/10/2005 21:30:00      0.000     0.000    0.0423
   07/10/2005 21:35:00      0.000     0.000    0.0398
   07/10/2005 21:40:00      0.000     0.000    0.0375
   07/10/2005 21:45:00      0.000     0.000    0.0354
   07/10/2005 21:50:00      0.000     0.000    0.0336
   07/10/2005 21:55:00      0.000     0.000    0.0319
   07/10/2005 22:00:00      0.000     0.000    0.0303
   07/10/2005 22:05:00      0.000     0.000    0.0289
   07/10/2005 22:10:00      0.000     0.000    0.0275
   07/10/2005 22:15:00      0.000     0.000    0.0263
   07/10/2005 22:20:00      0.000     0.000    0.0252
   07/10/2005 22:25:00      0.000     0.000    0.0241
   07/10/2005 22:30:00      0.000     0.000    0.0231
   07/10/2005 22:35:00      0.000     0.000    0.0222
   07/10/2005 22:40:00      0.000     0.000    0.0214
   07/10/2005 22:45:00      0.000     0.000    0.0206
   07/10/2005 22:50:00      0.000     0.000    0.0198
   07/10/2005 22:55:00      0.000     0.000    0.0191
   07/10/2005 23:00:00      0.000     0.000    0.0184
   07/10/2005 23:05:00      0.000     0.000    0.0178
   07/10/2005 23:10:00      0.000     0.000    0.0172
   07/10/2005 23:15:00      0.000     0.000    0.0166
   07/10/2005 23:20:00      0.000     0.000    0.0161
   07/10/2005 23:25:00      0.000     0.000    0.0155
   07/10/2005 23:30:00      0.000     0.000    0.0150
   07/10/2005 23:35:00      0.000     0.000    0.0146
   07/10/2005 23:40:00      0.000     0.000    0.0141
   07/10/2005 23:45:00      0.000     0.000    0.0137
   07/10/2005 23:50:00      0.000     0.000    0.0133
   07/10/2005 23:55:00      0.000     0.000    0.0129
   07/11/2005 00:00:00      0.000     0.000    0.0125
   07/11/2005 00:05:00      0.000     0.000    0.0122
   07/11/2005 00:10:00      0.000     0.000    0.0118
   07/11/2005 00:15:00      0.000     0.000    0.0115
   07/11/2005 00:20:00      0.000     0.000    0.0112
   07/11/2005 00:25:00      0.000     0.000    0.0109
   07/11/2005 00:30:00      0.000     0.000    0.0106
   07/11/2005 00:35:00      0.000     0.000    0.0103
   07/11/2005 00:40:00      0.000     0.000    0.0101
   07/11/2005 00:45:00      0.000     0.000    0.0098
   07/11/2005 00:50:00      0.000     0.000    0.0096
   07/11/2005 00:55:00      0.000     0.000    0.0093
   07/11/2005 01:00:00      0.000     0.000    0.0091
   07/11/2005 01:05:00      0.000     0.000    0.0089
   07/11/2005 01:10:00      0.000     0.000    0.0087
   07/11/2005 01:15:00      0.000     0.000    0.0085
   07/11/2005 01:20:00      0.000     0.000    0.0083
   07/11/2005 01:25:00      0.000     0.000    0.0081
   07/11/2005 01:30:00      0.000     0.000    0.0079
   07/11/2005 01:35:00      0.000     0.000    0.0077
   07/11/2005 01:40:00      0.000     0.000    0.0075
   07/11/2005 01:45:00      0.000     0.000    0.0074
   07/11/2005 01:50:00      0.000     0.000    0.0072
   07/11/2005 01:55:00      0.000     0.000    0.0070
  
  
  <<< Subcatchment S7 >>>
  ---------------------------------------------------
  Date        Time        Precip.    Losses    Runoff
                            mm/hr     mm/hr       CMS
  ---------------------------------------------------
   07/10/2005 17:15:00      1.200     0.312    0.0000
   07/10/2005 17:20:00      3.600     0.000    0.0000
   07/10/2005 17:25:00      7.200     0.000    0.0003
   07/10/2005 17:30:00     10.800     0.000    0.0013
   07/10/2005 17:35:00      6.000     0.000    0.0043
   07/10/2005 17:40:00      3.600     0.000    0.0073
   07/10/2005 17:45:00      2.400     0.263    0.0085
   07/10/2005 17:50:00      3.600     0.000    0.0086
   07/10/2005 17:55:00      3.600     0.000    0.0098
   07/10/2005 18:00:00      3.600     0.000    0.0109
   07/10/2005 18:05:00      8.400     0.000    0.0118
   07/10/2005 18:10:00     21.600     0.000    0.0178
   07/10/2005 18:15:00     12.000     0.000    0.0414
   07/10/2005 18:20:00     24.000     0.000    0.0454
   07/10/2005 18:25:00     24.000     0.000    0.0690
   07/10/2005 18:30:00      7.200     0.000    0.0860
   07/10/2005 18:35:00     18.000     0.000    0.0670
   07/10/2005 18:40:00      4.800     0.000    0.0763
   07/10/2005 18:45:00     10.800     0.000    0.0602
   07/10/2005 18:50:00     25.200     0.000    0.0612
   07/10/2005 18:55:00     28.800     0.000    0.0883
   07/10/2005 19:00:00     54.000     0.000    0.1152
   07/10/2005 19:05:00     21.600     0.000    0.1911
   07/10/2005 19:10:00     10.800     0.000    0.1619
   07/10/2005 19:15:00      2.400     0.243    0.1286
   07/10/2005 19:20:00      1.200     0.290    0.0973
   07/10/2005 19:25:00      0.000     0.000    0.0785
   07/10/2005 19:30:00      0.000     0.000    0.0654
   07/10/2005 19:35:00      1.200     0.282    0.0566
   07/10/2005 19:40:00      0.000     0.000    0.0517
   07/10/2005 19:45:00      0.000     0.000    0.0464
   07/10/2005 19:50:00      0.000     0.000    0.0423
   07/10/2005 19:55:00      1.200     0.275    0.0389
   07/10/2005 20:00:00      8.400     0.000    0.0371
   07/10/2005 20:05:00      7.200     0.000    0.0436
   07/10/2005 20:10:00      2.400     0.160    0.0480
   07/10/2005 20:15:00      1.200     0.263    0.0451
   07/10/2005 20:20:00      2.400     0.129    0.0413
   07/10/2005 20:25:00      3.600     0.000    0.0398
   07/10/2005 20:30:00      3.600     0.000    0.0399
   07/10/2005 20:35:00      2.400     0.119    0.0400
   07/10/2005 20:40:00      1.200     0.250    0.0384
   07/10/2005 20:45:00      1.200     0.243    0.0356
   07/10/2005 20:50:00      0.000     0.000    0.0334
   07/10/2005 20:55:00      1.200     0.237    0.0303
   07/10/2005 21:00:00      1.200     0.231    0.0290
   07/10/2005 21:05:00      1.200     0.225    0.0278
   07/10/2005 21:10:00      1.200     0.219    0.0267
   07/10/2005 21:15:00      0.000     0.000    0.0257
   07/10/2005 21:20:00      0.000     0.000    0.0238
   07/10/2005 21:25:00      0.000     0.000    0.0222
   07/10/2005 21:30:00      0.000     0.000    0.0208
   07/10/2005 21:35:00      0.000     0.000    0.0196
   07/10/2005 21:40:00      0.000     0.000    0.0185
   07/10/2005 21:45:00      0.000     0.000    0.0175
   07/10/2005 21:50:00      0.000     0.000    0.0167
   07/10/2005 21:55:00      0.000     0.000    0.0159
   07/10/2005 22:00:00      0.000     0.000    0.0151
   07/10/2005 22:05:00      0.000     0.000    0.0144
   07/10/2005 22:10:00      0.000     0.000    0.0138
   07/10/2005 22:15:00      0.000     0.000    0.0132
   07/10/2005 22:20:00      0.000     0.000    0.0127
   07/10/2005 22:25:00      0.000     0.000    0.0122
   07/10/2005 22:30:00      0.000     0.000    0.0117
   07/10/2005 22:35:00      0.000     0.000    0.0112
   07/10/2005 22:40:00      0.000     0.000    0.0108
   07/10/2005 22:45:00      0.000     0.000    0.0104
   07/10/2005 22:50:00      0.000     0.000    0.0100
   07/10/2005 22:55:00      0.000     0.000    0.0097
   07/10/2005 23:00:00      0.000     0.000    0.0093
   07/10/2005 23:05:00      0.000     0.000    0.0090
   07/10/2005 23:10:00      0.000     0.000    0.0087
   07/10/2005 23:15:00      0.000     0.000    0.0084
   07/10/2005 23:20:00      0.000     0.000    0.0081
   07/10/2005 23:25:00      0.000     0.000    0.0078
   07/10/2005 23:30:00      0.000     0.000    0.0076
   07/10/2005 23:35:00      0.000     0.000    0.0074
   07/10/2005 23:40:00      0.000     0.000    0.0071
   07/10/2005 23:45:00      0.000     0.000    0.0069
   07/10/2005 23:50:00      0.000     0.000    0.0067
   07/10/2005 23:55:00      0.000     0.000    0.0065
   07/11/2005 00:00:00      0.000     0.000    0.0063
   07/11/2005 00:05:00      0.000     0.000    0.0061
   07/11/2005 00:10:00      0.000     0.000    0.0059
   07/11/2005 00:15:00      0.000     0.000    0.0058
   07/11/2005 00:20:00      0.000     0.000    0.0056
   07/11/2005 00:25:00      0.000     0.000    0.0055
   07/11/2005 00:30:00      0.000     0.000    0.0053
   07/11/2005 00:35:00      0.000     0.000    0.0052
   07/11/2005 00:40:00      0.000     0.000    0.0050
   07/11/2005 00:45:00      0.000     0.000    0.0049
   07/11/2005 00:50:00      0.000     0.000    0.0048
   07/11/2005 00:55:00      0.000     0.000    0.0046
   07/11/2005 01:00:00      0.000     0.000    0.0045
   07/11/2005 01:05:00      0.000     0.000    0.0044
   07/11/2005 01:10:00      0.000     0.000    0.0043
   07/11/2005 01:15:00      0.000     0.000    0.0042
   07/11/2005 01:20:00      0.000     0.000    0.0041
   07/11/2005 01:25:00      0.000     0.000    0.0040
   07/11/2005 01:30:00      0.000     0.000    0.0039
   07/11/2005 01:35:00      0.000     0.000    0.0038
   07/11/2005 01:40:00      0.000     0.000    0.0037
   07/11/2005 01:45:00      0.000     0.000    0.0036
   07/11/2005 01:50:00      0.000     0.000    0.0035
   07/11/2005 01:55:00      0.000     0.000    0.0035
  
  
  <<< Subcatchment S8 >>>
  ---------------------------------------------------
  Date        Time        Precip.    Losses    Runoff
                            mm/hr     mm/hr       CMS
  ---------------------------------------------------
   07/10/2005 17:15:00      1.200     0.156    0.0000
   07/10/2005 17:20:00      3.600     0.000    0.0000
   07/10/2005 17:25:00      7.200     0.000    0.0000
   07/10/2005 17:30:00     10.800     0.000    0.0015
   07/10/2005 17:35:00      6.000     0.000    0.0051
   07/10/2005 17:40:00      3.600     0.000    0.0096
   07/10/2005 17:45:00      2.400     0.131    0.0126
   07/10/2005 17:50:00      3.600     0.000    0.0146
   07/10/2005 17:55:00      3.600     0.000    0.0180
   07/10/2005 18:00:00      3.600     0.000    0.0217
   07/10/2005 18:05:00      8.400     0.000    0.0253
   07/10/2005 18:10:00     21.600     0.000    0.0368
   07/10/2005 18:15:00     12.000     0.000    0.0767
   07/10/2005 18:20:00     24.000     0.000    0.0973
   07/10/2005 18:25:00     24.000     0.000    0.1511
   07/10/2005 18:30:00      7.200     0.000    0.2059
   07/10/2005 18:35:00     18.000     0.000    0.2009
   07/10/2005 18:40:00      4.800     0.000    0.2331
   07/10/2005 18:45:00     10.800     0.000    0.2165
   07/10/2005 18:50:00     25.200     0.000    0.2229
   07/10/2005 18:55:00     28.800     0.000    0.2799
   07/10/2005 19:00:00     54.000     0.000    0.3467
   07/10/2005 19:05:00     21.600     0.000    0.5188
   07/10/2005 19:10:00     10.800     0.000    0.5213
   07/10/2005 19:15:00      2.400     0.121    0.4755
   07/10/2005 19:20:00      1.200     0.145    0.4046
   07/10/2005 19:25:00      0.000     0.000    0.3454
   07/10/2005 19:30:00      0.000     0.000    0.2951
   07/10/2005 19:35:00      1.200     0.141    0.2553
   07/10/2005 19:40:00      0.000     0.000    0.2272
   07/10/2005 19:45:00      0.000     0.000    0.2005
   07/10/2005 19:50:00      0.000     0.000    0.1785
   07/10/2005 19:55:00      1.200     0.137    0.1601
   07/10/2005 20:00:00      8.400     0.000    0.1477
   07/10/2005 20:05:00      7.200     0.000    0.1573
   07/10/2005 20:10:00      2.400     0.080    0.1626
   07/10/2005 20:15:00      1.200     0.132    0.1533
   07/10/2005 20:20:00      2.400     0.064    0.1420
   07/10/2005 20:25:00      3.600     0.000    0.1354
   07/10/2005 20:30:00      3.600     0.000    0.1329
   07/10/2005 20:35:00      2.400     0.060    0.1307
   07/10/2005 20:40:00      1.200     0.125    0.1255
   07/10/2005 20:45:00      1.200     0.122    0.1178
   07/10/2005 20:50:00      0.000     0.000    0.1110
   07/10/2005 20:55:00      1.200     0.119    0.1022
   07/10/2005 21:00:00      1.200     0.115    0.0972
   07/10/2005 21:05:00      1.200     0.112    0.0927
   07/10/2005 21:10:00      1.200     0.110    0.0886
   07/10/2005 21:15:00      0.000     0.000    0.0850
   07/10/2005 21:20:00      0.000     0.000    0.0792
   07/10/2005 21:25:00      0.000     0.000    0.0740
   07/10/2005 21:30:00      0.000     0.000    0.0694
   07/10/2005 21:35:00      0.000     0.000    0.0652
   07/10/2005 21:40:00      0.000     0.000    0.0614
   07/10/2005 21:45:00      0.000     0.000    0.0580
   07/10/2005 21:50:00      0.000     0.000    0.0548
   07/10/2005 21:55:00      0.000     0.000    0.0520
   07/10/2005 22:00:00      0.000     0.000    0.0493
   07/10/2005 22:05:00      0.000     0.000    0.0469
   07/10/2005 22:10:00      0.000     0.000    0.0447
   07/10/2005 22:15:00      0.000     0.000    0.0426
   07/10/2005 22:20:00      0.000     0.000    0.0407
   07/10/2005 22:25:00      0.000     0.000    0.0389
   07/10/2005 22:30:00      0.000     0.000    0.0372
   07/10/2005 22:35:00      0.000     0.000    0.0357
   07/10/2005 22:40:00      0.000     0.000    0.0342
   07/10/2005 22:45:00      0.000     0.000    0.0328
   07/10/2005 22:50:00      0.000     0.000    0.0316
   07/10/2005 22:55:00      0.000     0.000    0.0303
   07/10/2005 23:00:00      0.000     0.000    0.0292
   07/10/2005 23:05:00      0.000     0.000    0.0281
   07/10/2005 23:10:00      0.000     0.000    0.0271
   07/10/2005 23:15:00      0.000     0.000    0.0262
   07/10/2005 23:20:00      0.000     0.000    0.0253
   07/10/2005 23:25:00      0.000     0.000    0.0244
   07/10/2005 23:30:00      0.000     0.000    0.0236
   07/10/2005 23:35:00      0.000     0.000    0.0228
   07/10/2005 23:40:00      0.000     0.000    0.0221
   07/10/2005 23:45:00      0.000     0.000    0.0214
   07/10/2005 23:50:00      0.000     0.000    0.0207
   07/10/2005 23:55:00      0.000     0.000    0.0201
   07/11/2005 00:00:00      0.000     0.000    0.0195
   07/11/2005 00:05:00      0.000     0.000    0.0189
   07/11/2005 00:10:00      0.000     0.000    0.0184
   07/11/2005 00:15:00      0.000     0.000    0.0178
   07/11/2005 00:20:00      0.000     0.000    0.0173
   07/11/2005 00:25:00      0.000     0.000    0.0169
   07/11/2005 00:30:00      0.000     0.000    0.0164
   07/11/2005 00:35:00      0.000     0.000    0.0159
   07/11/2005 00:40:00      0.000     0.000    0.0155
   07/11/2005 00:45:00      0.000     0.000    0.0151
   07/11/2005 00:50:00      0.000     0.000    0.0147
   07/11/2005 00:55:00      0.000     0.000    0.0143
   07/11/2005 01:00:00      0.000     0.000    0.0140
   07/11/2005 01:05:00      0.000     0.000    0.0136
   07/11/2005 01:10:00      0.000     0.000    0.0133
   07/11/2005 01:15:00      0.000     0.000    0.0130
   07/11/2005 01:20:00      0.000     0.000    0.0126
   07/11/2005 01:25:00      0.000     0.000    0.0123
   07/11/2005 01:30:00      0.000     0.000    0.0120
   07/11/2005 01:35:00      0.000     0.000    0.0118
   07/11/2005 01:40:00      0.000     0.000    0.0115
   07/11/2005 01:45:00      0.000     0.000    0.0112
   07/11/2005 01:50:00      0.000     0.000    0.0110
   07/11/2005 01:55:00      0.000     0.000    0.0107
  
  
  <<< Subcatchment S9 >>>
  ---------------------------------------------------
  Date        Time        Precip.    Losses    Runoff
                            mm/hr     mm/hr       CMS
  ---------------------------------------------------
   07/10/2005 17:15:00      1.200     0.284    0.0000
   07/10/2005 17:20:00      3.600     0.000    0.0000
   07/10/2005 17:25:00      7.200     0.000    0.0000
   07/10/2005 17:30:00     10.800     0.000    0.0015
   07/10/2005 17:35:00      6.000     0.000    0.0051
   07/10/2005 17:40:00      3.600     0.000    0.0096
   07/10/2005 17:45:00      2.400     0.239    0.0126
   07/10/2005 17:50:00      3.600     0.000    0.0146
   07/10/2005 17:55:00      3.600     0.000    0.0181
   07/10/2005 18:00:00      3.600     0.000    0.0217
   07/10/2005 18:05:00      8.400     0.000    0.0253
   07/10/2005 18:10:00     21.600     0.000    0.0369
   07/10/2005 18:15:00     12.000     0.000    0.0768
   07/10/2005 18:20:00     24.000     0.000    0.0974
   07/10/2005 18:25:00     24.000     0.000    0.1514
   07/10/2005 18:30:00      7.200     0.000    0.2064
   07/10/2005 18:35:00     18.000     0.000    0.2017
   07/10/2005 18:40:00      4.800     0.000    0.2342
   07/10/2005 18:45:00     10.800     0.000    0.2180
   07/10/2005 18:50:00     25.200     0.000    0.2248
   07/10/2005 18:55:00     28.800     0.000    0.2826
   07/10/2005 19:00:00     54.000     0.000    0.3504
   07/10/2005 19:05:00     21.600     0.000    0.5243
   07/10/2005 19:10:00     10.800     0.000    0.5286
   07/10/2005 19:15:00      2.400     0.221    0.4846
   07/10/2005 19:20:00      1.200     0.264    0.4152
   07/10/2005 19:25:00      0.000     0.000    0.3574
   07/10/2005 19:30:00      0.000     0.000    0.3084
   07/10/2005 19:35:00      1.200     0.257    0.2697
   07/10/2005 19:40:00      0.000     0.000    0.2427
   07/10/2005 19:45:00      0.000     0.000    0.2170
   07/10/2005 19:50:00      0.000     0.000    0.1958
   07/10/2005 19:55:00      1.200     0.250    0.1782
   07/10/2005 20:00:00      8.400     0.000    0.1666
   07/10/2005 20:05:00      7.200     0.000    0.1773
   07/10/2005 20:10:00      2.400     0.146    0.1837
   07/10/2005 20:15:00      1.200     0.239    0.1752
   07/10/2005 20:20:00      2.400     0.117    0.1645
   07/10/2005 20:25:00      3.600     0.000    0.1587
   07/10/2005 20:30:00      3.600     0.000    0.1570
   07/10/2005 20:35:00      2.400     0.108    0.1555
   07/10/2005 20:40:00      1.200     0.227    0.1509
   07/10/2005 20:45:00      1.200     0.221    0.1437
   07/10/2005 20:50:00      0.000     0.000    0.1373
   07/10/2005 20:55:00      1.200     0.215    0.1289
   07/10/2005 21:00:00      1.200     0.210    0.1242
   07/10/2005 21:05:00      1.200     0.204    0.1200
   07/10/2005 21:10:00      1.200     0.199    0.1163
   07/10/2005 21:15:00      0.000     0.000    0.1128
   07/10/2005 21:20:00      0.000     0.000    0.1072
   07/10/2005 21:25:00      0.000     0.000    0.1022
   07/10/2005 21:30:00      0.000     0.000    0.0976
   07/10/2005 21:35:00      0.000     0.000    0.0935
   07/10/2005 21:40:00      0.000     0.000    0.0898
   07/10/2005 21:45:00      0.000     0.000    0.0864
   07/10/2005 21:50:00      0.000     0.000    0.0832
   07/10/2005 21:55:00      0.000     0.000    0.0803
   07/10/2005 22:00:00      0.000     0.000    0.0777
   07/10/2005 22:05:00      0.000     0.000    0.0752
   07/10/2005 22:10:00      0.000     0.000    0.0729
   07/10/2005 22:15:00      0.000     0.000    0.0707
   07/10/2005 22:20:00      0.000     0.000    0.0687
   07/10/2005 22:25:00      0.000     0.000    0.0668
   07/10/2005 22:30:00      0.000     0.000    0.0651
   07/10/2005 22:35:00      0.000     0.000    0.0634
   07/10/2005 22:40:00      0.000     0.000    0.0618
   07/10/2005 22:45:00      0.000     0.000    0.0603
   07/10/2005 22:50:00      0.000     0.000    0.0589
   07/10/2005 22:55:00      0.000     0.000    0.0575
   07/10/2005 23:00:00      0.000     0.000    0.0562
   07/10/2005 23:05:00      0.000     0.000    0.0550
   07/10/2005 23:10:00      0.000     0.000    0.0538
   07/10/2005 23:15:00      0.000     0.000    0.0527
   07/10/2005 23:20:00      0.000     0.000    0.0516
   07/10/2005 23:25:00      0.000     0.000    0.0506
   07/10/2005 23:30:00      0.000     0.000    0.0496
   07/10/2005 23:35:00      0.000     0.000    0.0486
   07/10/2005 23:40:00      0.000     0.000    0.0477
   07/10/2005 23:45:00      0.000     0.000    0.0468
   07/10/2005 23:50:00      0.000     0.000    0.0460
   07/10/2005 23:55:00      0.000     0.000    0.0452
   07/11/2005 00:00:00      0.000     0.000    0.0444
   07/11/2005 00:05:00      0.000     0.000    0.0436
   07/11/2005 00:10:00      0.000     0.000    0.0428
   07/11/2005 00:15:00      0.000     0.000    0.0421
   07/11/2005 00:20:00      0.000     0.000    0.0414
   07/11/2005 00:25:00      0.000     0.000    0.0407
   07/11/2005 00:30:00      0.000     0.000    0.0401
   07/11/2005 00:35:00      0.000     0.000    0.0394
   07/11/2005 00:40:00      0.000     0.000    0.0388
   07/11/2005 00:45:00      0.000     0.000    0.0382
   07/11/2005 00:50:00      0.000     0.000    0.0376
   07/11/2005 00:55:00      0.000     0.000    0.0371
   07/11/2005 01:00:00      0.000     0.000    0.0365
   07/11/2005 01:05:00      0.000     0.000    0.0360
   07/11/2005 01:10:00      0.000     0.000    0.0354
   07/11/2005 01:15:00      0.000     0.000    0.0349
   07/11/2005 01:20:00      0.000     0.000    0.0344
   07/11/2005 01:25:00      0.000     0.000    0.0339
   07/11/2005 01:30:00      0.000     0.000    0.0334
   07/11/2005 01:35:00      0.000     0.000    0.0330
   07/11/2005 01:40:00      0.000     0.000    0.0325
   07/11/2005 01:45:00      0.000     0.000    0.0321
[...]
   07/10/2005 18:25:00      0.834     1.767     0.332     0.046
   07/10/2005 18:30:00      1.306     2.016     0.412     0.064
   07/10/2005 18:35:00      1.860     2.255     0.487     0.081
   07/10/2005 18:40:00      2.057     2.351     0.508     0.086
   07/10/2005 18:45:00      2.135     2.377     0.516     0.088
   07/10/2005 18:50:00      2.076     2.362     0.509     0.086
   07/10/2005 18:55:00      2.051     2.347     0.507     0.086
   07/10/2005 19:00:00      2.400     2.437     0.550     0.097
   07/10/2005 19:05:00      3.179     2.632     0.634     0.119
   07/10/2005 19:10:00      4.574     2.941     0.756     0.153
   07/10/2005 19:15:00      4.811     3.021     0.769     0.156
   07/10/2005 19:20:00      4.266     2.918     0.725     0.144
   07/10/2005 19:25:00      3.584     2.773     0.665     0.127
   07/10/2005 19:30:00      2.996     2.630     0.609     0.112
   07/10/2005 19:35:00      2.538     2.501     0.562     0.100
   07/10/2005 19:40:00      2.189     2.397     0.522     0.090
   07/10/2005 19:45:00      1.935     2.308     0.493     0.082
   07/10/2005 19:50:00      1.732     2.232     0.467     0.076
   07/10/2005 19:55:00      1.558     2.167     0.443     0.071
   07/10/2005 20:00:00      1.415     2.105     0.423     0.066
   07/10/2005 20:05:00      1.323     2.058     0.410     0.063
   07/10/2005 20:10:00      1.332     2.060     0.412     0.064
   07/10/2005 20:15:00      1.402     2.095     0.422     0.066
   07/10/2005 20:20:00      1.416     2.106     0.423     0.066
   07/10/2005 20:25:00      1.356     2.076     0.415     0.064
   07/10/2005 20:30:00      1.297     2.045     0.406     0.062
   07/10/2005 20:35:00      1.264     2.027     0.401     0.061
   07/10/2005 20:40:00      1.249     2.019     0.399     0.061
   07/10/2005 20:45:00      1.224     2.006     0.396     0.060
   07/10/2005 20:50:00      1.179     1.987     0.388     0.058
   07/10/2005 20:55:00      1.121     1.962     0.378     0.056
   07/10/2005 21:00:00      1.058     1.937     0.367     0.054
   07/10/2005 21:05:00      1.000     1.906     0.357     0.052
   07/10/2005 21:10:00      0.958     1.881     0.350     0.050
   07/10/2005 21:15:00      0.922     1.858     0.344     0.049
   07/10/2005 21:20:00      0.890     1.837     0.338     0.048
   07/10/2005 21:25:00      0.852     1.813     0.331     0.046
   07/10/2005 21:30:00      0.810     1.784     0.323     0.045
   07/10/2005 21:35:00      0.768     1.753     0.316     0.043
   07/10/2005 21:40:00      0.728     1.720     0.308     0.042
   07/10/2005 21:45:00      0.693     1.691     0.302     0.040
   07/10/2005 21:50:00      0.661     1.670     0.295     0.039
   07/10/2005 21:55:00      0.632     1.649     0.289     0.038
   07/10/2005 22:00:00      0.607     1.628     0.284     0.037
   07/10/2005 22:05:00      0.583     1.607     0.278     0.036
   07/10/2005 22:10:00      0.561     1.587     0.273     0.035
   07/10/2005 22:15:00      0.540     1.568     0.268     0.034
   07/10/2005 22:20:00      0.521     1.550     0.264     0.033
   07/10/2005 22:25:00      0.503     1.533     0.259     0.032
   07/10/2005 22:30:00      0.486     1.517     0.255     0.031
   07/10/2005 22:35:00      0.470     1.501     0.251     0.031
   07/10/2005 22:40:00      0.456     1.487     0.247     0.030
   07/10/2005 22:45:00      0.442     1.473     0.244     0.029
   07/10/2005 22:50:00      0.428     1.460     0.240     0.029
   07/10/2005 22:55:00      0.416     1.447     0.237     0.028
   07/10/2005 23:00:00      0.404     1.435     0.234     0.028
   07/10/2005 23:05:00      0.393     1.423     0.231     0.027
   07/10/2005 23:10:00      0.382     1.412     0.228     0.027
   07/10/2005 23:15:00      0.372     1.401     0.225     0.026
   07/10/2005 23:20:00      0.362     1.391     0.222     0.026
   07/10/2005 23:25:00      0.353     1.381     0.220     0.025
   07/10/2005 23:30:00      0.344     1.371     0.217     0.025
   07/10/2005 23:35:00      0.336     1.361     0.215     0.024
   07/10/2005 23:40:00      0.328     1.350     0.212     0.024
   07/10/2005 23:45:00      0.320     1.339     0.210     0.023
   07/10/2005 23:50:00      0.312     1.328     0.207     0.023
   07/10/2005 23:55:00      0.305     1.317     0.205     0.023
   07/11/2005 00:00:00      0.298     1.307     0.203     0.022
   07/11/2005 00:05:00      0.291     1.297     0.200     0.022
   07/11/2005 00:10:00      0.285     1.288     0.198     0.022
   07/11/2005 00:15:00      0.279     1.278     0.196     0.021
   07/11/2005 00:20:00      0.272     1.269     0.194     0.021
   07/11/2005 00:25:00      0.267     1.260     0.192     0.021
   07/11/2005 00:30:00      0.261     1.252     0.190     0.020
   07/11/2005 00:35:00      0.256     1.243     0.188     0.020
   07/11/2005 00:40:00      0.250     1.235     0.186     0.020
   07/11/2005 00:45:00      0.245     1.227     0.185     0.020
   07/11/2005 00:50:00      0.240     1.220     0.183     0.019
   07/11/2005 00:55:00      0.236     1.212     0.181     0.019
   07/11/2005 01:00:00      0.231     1.205     0.179     0.019
   07/11/2005 01:05:00      0.227     1.197     0.178     0.019
   07/11/2005 01:10:00      0.222     1.190     0.176     0.018
   07/11/2005 01:15:00      0.218     1.183     0.175     0.018
   07/11/2005 01:20:00      0.214     1.176     0.173     0.018
   07/11/2005 01:25:00      0.210     1.169     0.172     0.018
   07/11/2005 01:30:00      0.206     1.162     0.170     0.017
   07/11/2005 01:35:00      0.202     1.156     0.169     0.017
   07/11/2005 01:40:00      0.199     1.150     0.167     0.017
   07/11/2005 01:45:00      0.195     1.144     0.166     0.017
   07/11/2005 01:50:00      0.192     1.138     0.165     0.017
   07/11/2005 01:55:00      0.188     1.132     0.163     0.016
  
  
  <<< Link C24 >>>
  ----------------------------------------------------------------
                             Flow  Velocity     Depth  Capacity/
  Date        Time            CMS     m/sec    meters   Setting 
  ----------------------------------------------------------------
   07/10/2005 17:15:00      0.000     0.000     0.000     0.000
   07/10/2005 17:20:00      0.000     0.000     0.001     0.000
   07/10/2005 17:25:00      0.000     0.180     0.004     0.001
   07/10/2005 17:30:00      0.001     0.381     0.010     0.002
   07/10/2005 17:35:00      0.003     0.590     0.022     0.005
   07/10/2005 17:40:00      0.007     0.706     0.037     0.010
   07/10/2005 17:45:00      0.011     0.724     0.049     0.016
   07/10/2005 17:50:00      0.013     0.717     0.055     0.019
   07/10/2005 17:55:00      0.015     0.748     0.059     0.021
   07/10/2005 18:00:00      0.018     0.800     0.065     0.024
   07/10/2005 18:05:00      0.021     0.840     0.069     0.026
   07/10/2005 18:10:00      0.028     0.939     0.078     0.032
   07/10/2005 18:15:00      0.057     1.200     0.106     0.050
   07/10/2005 18:20:00      0.080     1.277     0.129     0.066
   07/10/2005 18:25:00      0.117     1.451     0.154     0.085
   07/10/2005 18:30:00      0.162     1.597     0.180     0.107
   07/10/2005 18:35:00      0.164     1.579     0.183     0.109
   07/10/2005 18:40:00      0.177     1.653     0.187     0.113
   07/10/2005 18:45:00      0.168     1.612     0.183     0.109
   07/10/2005 18:50:00      0.164     1.621     0.180     0.106
   07/10/2005 18:55:00      0.200     1.741     0.196     0.121
   07/10/2005 19:00:00      0.252     1.848     0.221     0.144
   07/10/2005 19:05:00      0.378     2.090     0.269     0.190
   07/10/2005 19:10:00      0.395     2.082     0.279     0.200
   07/10/2005 19:15:00      0.355     2.026     0.264     0.184
   07/10/2005 19:20:00      0.296     1.925     0.241     0.162
   07/10/2005 19:25:00      0.247     1.826     0.220     0.142
   07/10/2005 19:30:00      0.208     1.729     0.203     0.127
   07/10/2005 19:35:00      0.179     1.648     0.188     0.114
   07/10/2005 19:40:00      0.159     1.588     0.178     0.105
   07/10/2005 19:45:00      0.142     1.529     0.169     0.098
   07/10/2005 19:50:00      0.128     1.475     0.161     0.091
   07/10/2005 19:55:00      0.116     1.431     0.155     0.086
   07/10/2005 20:00:00      0.109     1.399     0.150     0.082
   07/10/2005 20:05:00      0.115     1.432     0.153     0.084
   07/10/2005 20:10:00      0.123     1.457     0.158     0.089
   07/10/2005 20:15:00      0.121     1.436     0.158     0.088
   07/10/2005 20:20:00      0.114     1.408     0.154     0.085
   07/10/2005 20:25:00      0.110     1.393     0.151     0.083
   07/10/2005 20:30:00      0.109     1.391     0.150     0.082
   07/10/2005 20:35:00      0.109     1.390     0.150     0.082
   07/10/2005 20:40:00      0.107     1.379     0.149     0.081
   07/10/2005 20:45:00      0.102     1.359     0.146     0.079
   07/10/2005 20:50:00      0.098     1.340     0.143     0.077
   07/10/2005 20:55:00      0.092     1.314     0.140     0.074
   07/10/2005 21:00:00      0.089     1.299     0.137     0.072
   07/10/2005 21:05:00      0.086     1.288     0.135     0.070
   07/10/2005 21:10:00      0.083     1.276     0.133     0.069
   07/10/2005 21:15:00      0.081     1.265     0.131     0.067
   07/10/2005 21:20:00      0.078     1.246     0.129     0.066
   07/10/2005 21:25:00      0.074     1.227     0.126     0.064
   07/10/2005 21:30:00      0.071     1.210     0.123     0.062
   07/10/2005 21:35:00      0.068     1.195     0.121     0.060
   07/10/2005 21:40:00      0.065     1.182     0.119     0.058
   07/10/2005 21:45:00      0.063     1.169     0.116     0.057
   07/10/2005 21:50:00      0.061     1.157     0.115     0.055
   07/10/2005 21:55:00      0.059     1.146     0.113     0.054
   07/10/2005 22:00:00      0.057     1.136     0.111     0.053
   07/10/2005 22:05:00      0.055     1.126     0.109     0.052
   07/10/2005 22:10:00      0.054     1.115     0.108     0.051
   07/10/2005 22:15:00      0.052     1.105     0.106     0.050
   07/10/2005 22:20:00      0.051     1.096     0.105     0.049
   07/10/2005 22:25:00      0.049     1.087     0.104     0.048
   07/10/2005 22:30:00      0.048     1.079     0.102     0.047
   07/10/2005 22:35:00      0.047     1.071     0.101     0.046
   07/10/2005 22:40:00      0.046     1.063     0.100     0.045
   07/10/2005 22:45:00      0.045     1.056     0.099     0.045
   07/10/2005 22:50:00      0.044     1.049     0.098     0.044
   07/10/2005 22:55:00      0.043     1.042     0.097     0.043
   07/10/2005 23:00:00      0.042     1.036     0.096     0.043
   07/10/2005 23:05:00      0.041     1.029     0.095     0.042
   07/10/2005 23:10:00      0.040     1.024     0.094     0.041
   07/10/2005 23:15:00      0.039     1.018     0.093     0.041
   07/10/2005 23:20:00      0.038     1.012     0.092     0.040
   07/10/2005 23:25:00      0.038     1.007     0.091     0.039
   07/10/2005 23:30:00      0.037     1.002     0.090     0.039
   07/10/2005 23:35:00      0.036     0.997     0.089     0.038
   07/10/2005 23:40:00      0.036     0.992     0.089     0.038
   07/10/2005 23:45:00      0.035     0.986     0.088     0.037
   07/10/2005 23:50:00      0.034     0.980     0.087     0.037
   07/10/2005 23:55:00      0.034     0.975     0.086     0.036
   07/11/2005 00:00:00      0.033     0.969     0.085     0.036
   07/11/2005 00:05:00      0.032     0.963     0.085     0.035
   07/11/2005 00:10:00      0.032     0.958     0.084     0.035
   07/11/2005 00:15:00      0.031     0.953     0.083     0.035
   07/11/2005 00:20:00      0.031     0.947     0.083     0.034
   07/11/2005 00:25:00      0.030     0.942     0.082     0.034
   07/11/2005 00:30:00      0.030     0.937     0.081     0.033
   07/11/2005 00:35:00      0.029     0.932     0.081     0.033
   07/11/2005 00:40:00      0.029     0.928     0.080     0.033
   07/11/2005 00:45:00      0.028     0.923     0.079     0.032
   07/11/2005 00:50:00      0.028     0.919     0.079     0.032
   07/11/2005 00:55:00      0.027     0.914     0.078     0.032
   07/11/2005 01:00:00      0.027     0.910     0.077     0.031
   07/11/2005 01:05:00      0.027     0.906     0.077     0.031
   07/11/2005 01:10:00      0.026     0.902     0.076     0.030
   07/11/2005 01:15:00      0.026     0.898     0.076     0.030
   07/11/2005 01:20:00      0.025     0.894     0.075     0.030
   07/11/2005 01:25:00      0.025     0.890     0.075     0.029
   07/11/2005 01:30:00      0.025     0.886     0.074     0.029
   07/11/2005 01:35:00      0.024     0.882     0.073     0.029
   07/11/2005 01:40:00      0.024     0.879     0.073     0.029
   07/11/2005 01:45:00      0.023     0.875     0.072     0.028
   07/11/2005 01:50:00      0.023     0.871     0.072     0.028
   07/11/2005 01:55:00      0.023     0.868     0.071     0.028
  
  
  <<< Link C22 >>>
  ----------------------------------------------------------------
                             Flow  Velocity     Depth  Capacity/
  Date        Time            CMS     m/sec    meters   Setting 
  ----------------------------------------------------------------
   07/10/2005 17:15:00      0.000     0.000     0.036     0.007
   07/10/2005 17:20:00      0.000     0.000     0.029     0.005
   07/10/2005 17:25:00      0.000     0.007     0.024     0.004
   07/10/2005 17:30:00      0.000     0.067     0.023     0.003
   07/10/2005 17:35:00      0.002     0.313     0.027     0.004
   07/10/2005 17:40:00      0.006     0.640     0.034     0.006
   07/10/2005 17:45:00      0.011     0.766     0.043     0.009
   07/10/2005 17:50:00      0.014     0.771     0.051     0.012
   07/10/2005 17:55:00      0.016     0.751     0.058     0.014
   07/10/2005 18:00:00      0.020     0.772     0.065     0.017
   07/10/2005 18:05:00      0.024     0.804     0.071     0.019
   07/10/2005 18:10:00      0.032     0.919     0.079     0.023
   07/10/2005 18:15:00      0.062     1.223     0.102     0.033
   07/10/2005 18:20:00      0.092     1.319     0.127     0.045
   07/10/2005 18:25:00      0.135     1.458     0.154     0.060
   07/10/2005 18:30:00      0.191     1.589     0.185     0.078
   07/10/2005 18:35:00      0.203     1.521     0.198     0.087
   07/10/2005 18:40:00      0.226     1.609     0.205     0.091
   07/10/2005 18:45:00      0.222     1.582     0.206     0.091
   07/10/2005 18:50:00      0.223     1.616     0.203     0.090
   07/10/2005 18:55:00      0.268     1.796     0.214     0.097
   07/10/2005 19:00:00      0.335     1.928     0.238     0.113
   07/10/2005 19:05:00      0.487     2.186     0.283     0.145
   07/10/2005 19:10:00      0.528     2.103     0.308     0.163
   07/10/2005 19:15:00      0.494     2.038     0.300     0.157
   07/10/2005 19:20:00      0.430     1.967     0.280     0.142
   07/10/2005 19:25:00      0.371     1.907     0.257     0.126
   07/10/2005 19:30:00      0.320     1.844     0.238     0.113
   07/10/2005 19:35:00      0.279     1.785     0.221     0.102
   07/10/2005 19:40:00      0.249     1.744     0.208     0.093
   07/10/2005 19:45:00      0.224     1.696     0.197     0.086
   07/10/2005 19:50:00      0.202     1.643     0.187     0.080
   07/10/2005 19:55:00      0.183     1.597     0.179     0.074
   07/10/2005 20:00:00      0.170     1.568     0.172     0.070
   07/10/2005 20:05:00      0.174     1.617     0.171     0.070
   07/10/2005 20:10:00      0.182     1.637     0.175     0.072
   07/10/2005 20:15:00      0.178     1.586     0.176     0.073
   07/10/2005 20:20:00      0.168     1.535     0.173     0.071
   07/10/2005 20:25:00      0.160     1.519     0.169     0.069
   07/10/2005 20:30:00      0.157     1.522     0.167     0.067
   07/10/2005 20:35:00      0.156     1.521     0.166     0.067
   07/10/2005 20:40:00      0.152     1.503     0.164     0.066
   07/10/2005 20:45:00      0.146     1.474     0.161     0.064
   07/10/2005 20:50:00      0.139     1.451     0.158     0.062
   07/10/2005 20:55:00      0.131     1.424     0.154     0.060
   07/10/2005 21:00:00      0.126     1.411     0.150     0.058
   07/10/2005 21:05:00      0.121     1.404     0.147     0.056
   07/10/2005 21:10:00      0.117     1.394     0.145     0.055
   07/10/2005 21:15:00      0.114     1.384     0.142     0.053
   07/10/2005 21:20:00      0.109     1.364     0.140     0.052
   07/10/2005 21:25:00      0.104     1.341     0.137     0.050
   07/10/2005 21:30:00      0.099     1.322     0.134     0.049
   07/10/2005 21:35:00      0.095     1.307     0.131     0.047
   07/10/2005 21:40:00      0.091     1.292     0.128     0.046
   07/10/2005 21:45:00      0.088     1.279     0.125     0.044
   07/10/2005 21:50:00      0.084     1.266     0.123     0.043
   07/10/2005 21:55:00      0.081     1.254     0.121     0.042
   07/10/2005 22:00:00      0.079     1.242     0.119     0.041
   07/10/2005 22:05:00      0.076     1.231     0.117     0.040
   07/10/2005 22:10:00      0.074     1.221     0.115     0.039
   07/10/2005 22:15:00      0.072     1.213     0.114     0.038
   07/10/2005 22:20:00      0.069     1.206     0.112     0.037
   07/10/2005 22:25:00      0.068     1.196     0.110     0.037
   07/10/2005 22:30:00      0.066     1.186     0.109     0.036
   07/10/2005 22:35:00      0.064     1.177     0.107     0.035
   07/10/2005 22:40:00      0.062     1.169     0.106     0.035
   07/10/2005 22:45:00      0.061     1.161     0.105     0.034
   07/10/2005 22:50:00      0.059     1.153     0.103     0.033
   07/10/2005 22:55:00      0.058     1.145     0.102     0.033
   07/10/2005 23:00:00      0.057     1.138     0.101     0.032
   07/10/2005 23:05:00      0.055     1.131     0.100     0.032
   07/10/2005 23:10:00      0.054     1.125     0.099     0.031
   07/10/2005 23:15:00      0.053     1.118     0.098     0.031
   07/10/2005 23:20:00      0.052     1.112     0.097     0.030
   07/10/2005 23:25:00      0.051     1.106     0.096     0.030
   07/10/2005 23:30:00      0.050     1.101     0.095     0.029
   07/10/2005 23:35:00      0.049     1.095     0.094     0.029
   07/10/2005 23:40:00      0.048     1.090     0.093     0.029
   07/10/2005 23:45:00      0.047     1.085     0.092     0.028
   07/10/2005 23:50:00      0.046     1.080     0.091     0.028
   07/10/2005 23:55:00      0.045     1.075     0.091     0.027
   07/11/2005 00:00:00      0.045     1.071     0.090     0.027
   07/11/2005 00:05:00      0.044     1.066     0.089     0.027
   07/11/2005 00:10:00      0.043     1.062     0.088     0.026
   07/11/2005 00:15:00      0.042     1.058     0.087     0.026
   07/11/2005 00:20:00      0.042     1.054     0.087     0.026
   07/11/2005 00:25:00      0.041     1.050     0.086     0.025
   07/11/2005 00:30:00      0.040     1.046     0.085     0.025
   07/11/2005 00:35:00      0.040     1.042     0.085     0.025
   07/11/2005 00:40:00      0.039     1.039     0.084     0.024
   07/11/2005 00:45:00      0.038     1.034     0.083     0.024
   07/11/2005 00:50:00      0.038     1.029     0.083     0.024
   07/11/2005 00:55:00      0.037     1.024     0.082     0.024
   07/11/2005 01:00:00      0.037     1.020     0.081     0.023
   07/11/2005 01:05:00      0.036     1.015     0.081     0.023
   07/11/2005 01:10:00      0.036     1.011     0.080     0.023
   07/11/2005 01:15:00      0.035     1.006     0.080     0.023
   07/11/2005 01:20:00      0.035     1.002     0.079     0.022
   07/11/2005 01:25:00      0.034     0.998     0.078     0.022
   07/11/2005 01:30:00      0.034     0.994     0.078     0.022
   07/11/2005 01:35:00      0.033     0.989     0.077     0.022
   07/11/2005 01:40:00      0.033     0.985     0.077     0.022
   07/11/2005 01:45:00      0.032     0.982     0.076     0.021
   07/11/2005 01:50:00      0.032     0.978     0.076     0.021
   07/11/2005 01:55:00      0.031     0.974     0.075     0.021
  

  Analysis begun on:  Wed Mar 27 20:59:34 2019
  Analysis ended on:  Wed Mar 27 20:59:35 2019
  Total elapsed time: 00:00:01