
  EPA STORM WATER MANAGEMENT MODEL - VERSION 5.1 (Build 5.1.012)
  --------------------------------------------------------------

  
  *************
  Element Count
  *************
  Number of rain gages ...... 1
  Number of subcatchments ... 15
  Number of nodes ........... 25
  Number of links ........... 24
  Number of pollutants ...... 0
  Number of land uses ....... 0
  
  
  ****************
  Raingage Summary
  ****************
                                                      Data       Recording
  Name                 Data Source                    Type       Interval 
  ------------------------------------------------------------------------
  1                    20050803                       VOLUME       5 min.
  
  
  ********************
  Subcatchment Summary
  ********************
  Name                       Area     Width   %Imperv    %Slope Rain Gage            Outlet              
  -----------------------------------------------------------------------------------------------------------
  S1                         2.21    400.00     80.00    0.0500 1                    J1                  
  S2                         7.25    400.00     50.00    0.0500 1                    J0                  
  S3                         1.53    400.00     30.00    0.0500 1                    J4                  
  S4                         6.18    400.00     20.00    0.0500 1                    J8                  
  S5                         9.28    400.00     20.00    0.0500 1                    J7                  
  S6                         6.98    400.00     60.00    0.0500 1                    J5                  
  S7                         3.28    400.00     40.00    0.0500 1                    J25                 
  S8                        10.68    400.00     70.00    0.0500 1                    J11                 
  S9                        16.43    400.00     30.00    0.0500 1                    J14                 
  S10                        2.73    400.00     40.00    0.0500 1                    J9                  
  S11                        9.27    700.00     40.00    0.0500 1                    J10                 
  S12                       10.58    400.00     60.00    0.0500 1                    J17                 
  S13                       10.08    500.00     60.00    0.0500 1                    J24                 
  S14                       11.53    400.00     40.00    0.0500 1                    J15                 
  S15                        8.92    400.00     50.00    0.0500 1                    J23                 
  
  
  ************
  Node Summary
  ************
                                           Invert      Max.    Ponded    External
  Name                 Type                 Elev.     Depth      Area    Inflow  
  -------------------------------------------------------------------------------
  J0                   JUNCTION             30.99      4.00       0.0
  J1                   JUNCTION             28.99      4.00       0.0
  J2                   JUNCTION             25.99      4.00       0.0
  J3                   JUNCTION             30.99      4.00       0.0
  J4                   JUNCTION             33.99      4.00       0.0
  J5                   JUNCTION             28.99      4.00       0.0
  J6                   JUNCTION             23.79      4.00       0.0
  J7                   JUNCTION             28.39      4.00       0.0
  J8                   JUNCTION             29.99      4.00       0.0
  J9                   JUNCTION             28.69      4.00       0.0
  J10                  JUNCTION             25.99      4.00       0.0
  J11                  JUNCTION             25.69      4.00       0.0
  J12                  JUNCTION             22.79      4.00       0.0
  J13                  JUNCTION             25.29      4.00       0.0
  J14                  JUNCTION             24.59      4.00       0.0
  J15                  JUNCTION             24.19      4.00       0.0
  J16                  JUNCTION             23.39      4.00       0.0
  J17                  JUNCTION             22.09      4.00       0.0
  J18                  JUNCTION             16.00      4.00       0.0
  J20                  JUNCTION             17.70      4.00       0.0
  J21                  JUNCTION             19.00      4.00       0.0
  J23                  JUNCTION             22.29      4.00       0.0
  J24                  JUNCTION             20.89      4.00       0.0
  J25                  JUNCTION             30.19      4.00       0.0
  J19                  OUTFALL              15.50      3.60       0.0
  
  
  ************
  Link Summary
  ************
  Name             From Node        To Node          Type            Length    %Slope Roughness
  ---------------------------------------------------------------------------------------------
  C0               J0               J2               CONDUIT          214.0    2.3371    0.0110
  C1               J1               J2               CONDUIT          152.0    1.9741    0.0110
  C2               J3               J2               CONDUIT          306.0    1.6342    0.0110
  C3               J4               J3               CONDUIT          128.0    2.3444    0.0110
  C4               J2               J6               CONDUIT          293.0    0.7509    0.0110
  C5               J5               J6               CONDUIT          246.0    2.1143    0.0110
  C6               J25              J11              CONDUIT          289.0    1.5573    0.0110
  C7               J6               J12              CONDUIT          335.0    0.2985    0.0110
  C8               J7               J6               CONDUIT          187.0    2.4606    0.0110
  C9               J8               J9               CONDUIT          119.0    1.0925    0.0110
  C10              J9               J16              CONDUIT          325.0    1.6310    0.0110
  C11              J10              J11              CONDUIT          227.0    0.1322    0.0110
  C12              J12              J18              CONDUIT          401.0    1.6935    0.0110
  C13              J17              J18              CONDUIT          267.0    2.2815    0.0110
  C14              J11              J13              CONDUIT          113.0    0.3540    0.0110
  C16              J13              J17              CONDUIT          409.0    0.7824    0.0110
  C17              J24              J20              CONDUIT          329.0    0.9697    0.0110
  C18              J20              J18              CONDUIT          215.0    0.7907    0.0110
  C19              J16              J21              CONDUIT          437.0    1.0046    0.0110
  C20              J21              J20              CONDUIT          295.0    0.4407    0.0110
  C21              J23              J21              CONDUIT          204.0    1.6130    0.0110
  C23              J18              J19              CONDUIT          161.0    0.3106    0.0110
  C24              J15              J16              CONDUIT          197.0    0.4061    0.0110
  C22              J14              J12              CONDUIT          280.0    0.6429    0.0110
  
  
  *********************
  Cross Section Summary
  *********************
                                        Full     Full     Hyd.     Max.   No. of     Full
  Conduit          Shape               Depth     Area     Rad.    Width  Barrels     Flow
  ---------------------------------------------------------------------------------------
  C0               CIRCULAR             0.70     0.38     0.17     0.70        1     1.67
  C1               CIRCULAR             0.60     0.28     0.15     0.60        1     1.02
  C2               CIRCULAR             0.80     0.50     0.20     0.80        1     2.00
  C3               CIRCULAR             0.60     0.28     0.15     0.60        1     1.11
  C4               CIRCULAR             1.20     1.13     0.30     1.20        1     3.99
  C5               CIRCULAR             0.70     0.38     0.17     0.70        1     1.59
  C6               CIRCULAR             0.80     0.50     0.20     0.80        1     1.95
  C7               CIRCULAR             2.40     4.52     0.60     2.40        1    15.99
  C8               CIRCULAR             0.70     0.38     0.17     0.70        1     1.72
  C9               CIRCULAR             0.70     0.38     0.17     0.70        1     1.14
  C10              CIRCULAR             1.00     0.79     0.25     1.00        1     3.62
  C11              CIRCULAR             1.50     1.77     0.38     1.50        1     3.04
  C12              CIRCULAR             3.00     7.07     0.75     3.00        1    69.04
  C13              CIRCULAR             1.50     1.77     0.38     1.50        1    12.62
  C14              CIRCULAR             1.50     1.77     0.38     1.50        1     4.97
  C16              CIRCULAR             1.35     1.43     0.34     1.35        1     5.58
  C17              CIRCULAR             0.80     0.50     0.20     0.80        1     1.54
  C18              CIRCULAR             3.00     7.07     0.75     3.00        1    47.18
  C19              CIRCULAR             3.00     7.07     0.75     3.00        1    53.18
  C20              CIRCULAR             3.00     7.07     0.75     3.00        1    35.22
  C21              CIRCULAR             1.00     0.79     0.25     1.00        1     3.60
  C23              CIRCULAR             3.60    10.18     0.90     3.60        1    48.08
  C24              CIRCULAR             1.10     0.95     0.28     1.10        1     2.33
  C22              CIRCULAR             1.40     1.54     0.35     1.40        1     5.57
  
  
  
  *********************************************************
  NOTE: The summary statistics displayed in this report are
  based on results found at every computational time step,  
  not just on results from each reporting time step.
  *********************************************************
  
  ****************
  Analysis Options
  ****************
  Flow Units ............... CMS
  Process Models:
    Rainfall/Runoff ........ YES
    RDII ................... NO
    Snowmelt ............... NO
    Groundwater ............ NO
    Flow Routing ........... YES
    Ponding Allowed ........ NO
    Water Quality .......... NO
  Infiltration Method ...... HORTON
  Flow Routing Method ...... DYNWAVE
  Starting Date ............ 08/03/2005 07:05:00
  Ending Date .............. 08/03/2005 11:10:00
  Antecedent Dry Days ...... 0.0
  Report Time Step ......... 00:05:00
  Wet Time Step ............ 00:05:00
  Dry Time Step ............ 01:00:00
  Routing Time Step ........ 30.00 sec
  Variable Time Step ....... YES
  Maximum Trials ........... 8
  Number of Threads ........ 1
  Head Tolerance ........... 0.005000 m
  
  
  **************************        Volume         Depth
  Runoff Quantity Continuity     hectare-m            mm
  **************************     ---------       -------
  Total Precipitation ......         4.643        39.700
  Evaporation Loss .........         0.000         0.000
  Infiltration Loss ........         2.534        21.666
  Surface Runoff ...........         1.865        15.952
  Final Storage ............         0.259         2.211
  Continuity Error (%) .....        -0.324
  
  
  **************************        Volume        Volume
  Flow Routing Continuity        hectare-m      10^6 ltr
  **************************     ---------     ---------
  Dry Weather Inflow .......         0.000         0.000
  Wet Weather Inflow .......         1.853        18.535
  Groundwater Inflow .......         0.000         0.000
  RDII Inflow ..............         0.000         0.000
  External Inflow ..........         0.000         0.000
  External Outflow .........         1.810        18.099
  Flooding Loss ............         0.000         0.000
  Evaporation Loss .........         0.000         0.000
  Exfiltration Loss ........         0.000         0.000
  Initial Stored Volume ....         0.021         0.207
  Final Stored Volume ......         0.058         0.584
  Continuity Error (%) .....         0.320
  
  
  *************************
  Highest Continuity Errors
  *************************
  Node J21 (1.24%)
  
  
  ***************************
  Time-Step Critical Elements
  ***************************
  Link C14 (54.56%)
  
  
  ********************************
  Highest Flow Instability Indexes
  ********************************
  Link C4 (5)
  Link C1 (4)
  Link C7 (4)
  Link C9 (4)
  Link C8 (4)
  
  
  *************************
  Routing Time Step Summary
  *************************
  Minimum Time Step           :    22.32 sec
  Average Time Step           :    27.95 sec
  Maximum Time Step           :    30.00 sec
  Percent in Steady State     :     0.00
  Average Iterations per Step :     2.00
  Percent Not Converging      :     0.00
  
  
  ***************************
  Subcatchment Runoff Summary
  ***************************
  
  --------------------------------------------------------------------------------------------------------
                            Total      Total      Total      Total      Total       Total     Peak  Runoff
                           Precip      Runon       Evap      Infil     Runoff      Runoff   Runoff   Coeff
  Subcatchment                 mm         mm         mm         mm         mm    10^6 ltr      CMS
  --------------------------------------------------------------------------------------------------------
  S1                        39.70       0.00       0.00       7.94      29.54        0.65     0.13   0.744
  S2                        39.70       0.00       0.00      19.85      17.80        1.29     0.23   0.448
  S3                        39.70       0.00       0.00      27.79      11.50        0.18     0.04   0.290
  S4                        39.70       0.00       0.00      31.76       7.48        0.46     0.10   0.188
  S5                        39.70       0.00       0.00      31.76       7.37        0.68     0.13   0.186
  S6                        39.70       0.00       0.00      15.88      21.14        1.48     0.25   0.533
  S7                        39.70       0.00       0.00      23.82      14.93        0.49     0.10   0.376
  S8                        39.70       0.00       0.00      11.91      23.37        2.50     0.38   0.589
  S9                        39.70       0.00       0.00      27.79      10.44        1.71     0.29   0.263
  S10                       39.70       0.00       0.00      23.82      15.01        0.41     0.09   0.378
  S11                       39.70       0.00       0.00      23.82      14.66        1.36     0.26   0.369
  S12                       39.70       0.00       0.00      15.88      20.39        2.16     0.34   0.514
  S13                       39.70       0.00       0.00      15.88      20.91        2.11     0.35   0.527
  S14                       39.70       0.00       0.00      23.82      13.99        1.61     0.27   0.352
  S15                       39.70       0.00       0.00      19.85      17.54        1.56     0.27   0.442
  
  
  ******************
  Node Depth Summary
  ******************
  
  ---------------------------------------------------------------------------------
                                 Average  Maximum  Maximum  Time of Max    Reported
                                   Depth    Depth      HGL   Occurrence   Max Depth
  Node                 Type       Meters   Meters   Meters  days hr:min      Meters
  ---------------------------------------------------------------------------------
  J0                   JUNCTION     0.11     0.17    31.16     0  01:00        0.17
  J1                   JUNCTION     0.08     0.14    29.13     0  01:00        0.14
  J2                   JUNCTION     0.15     0.25    26.24     0  01:04        0.25
  J3                   JUNCTION     0.04     0.08    31.07     0  00:23        0.08
  J4                   JUNCTION     0.04     0.08    34.07     0  00:20        0.08
  J5                   JUNCTION     0.11     0.19    29.18     0  01:00        0.19
  J6                   JUNCTION     0.23     0.37    24.16     0  01:06        0.36
  J7                   JUNCTION     0.08     0.13    28.52     0  01:00        0.13
  J8                   JUNCTION     0.08     0.14    30.13     0  01:00        0.13
  J9                   JUNCTION     0.08     0.15    28.84     0  01:01        0.15
  J10                  JUNCTION     0.17     0.29    26.28     0  01:02        0.29
  J11                  JUNCTION     0.24     0.39    26.08     0  01:04        0.39
  J12                  JUNCTION     0.16     0.25    23.04     0  01:07        0.25
  J13                  JUNCTION     0.20     0.33    25.62     0  01:05        0.33
  J14                  JUNCTION     0.13     0.21    24.80     0  01:02        0.21
  J15                  JUNCTION     0.16     0.26    24.45     0  01:01        0.26
  J16                  JUNCTION     0.12     0.19    23.58     0  01:04        0.19
  J17                  JUNCTION     0.18     0.29    22.38     0  01:06        0.29
  J18                  JUNCTION     0.38     0.62    16.62     0  01:08        0.62
  J20                  JUNCTION     0.19     0.31    18.01     0  01:07        0.30
  J21                  JUNCTION     0.18     0.29    19.29     0  01:07        0.29
  J23                  JUNCTION     0.11     0.18    22.47     0  01:00        0.18
  J24                  JUNCTION     0.16     0.26    21.15     0  01:02        0.26
  J25                  JUNCTION     0.07     0.12    30.31     0  01:01        0.12
  J19                  OUTFALL      0.38     0.62    16.12     0  01:09        0.62
  
  
  *******************
  Node Inflow Summary
  *******************
  
  -------------------------------------------------------------------------------------------------
                                  Maximum  Maximum                  Lateral       Total        Flow
                                  Lateral    Total  Time of Max      Inflow      Inflow     Balance
                                   Inflow   Inflow   Occurrence      Volume      Volume       Error
  Node                 Type           CMS      CMS  days hr:min    10^6 ltr    10^6 ltr     Percent
  -------------------------------------------------------------------------------------------------
  J0                   JUNCTION     0.228    0.228     0  01:00        1.28        1.28      -0.437
  J1                   JUNCTION     0.130    0.130     0  01:00       0.649       0.649       0.103
  J2                   JUNCTION     0.000    0.394     0  01:01           0        2.11       0.255
  J3                   JUNCTION     0.000    0.044     0  00:21           0       0.175       0.794
  J4                   JUNCTION     0.044    0.044     0  01:00       0.175       0.175      -0.166
  J5                   JUNCTION     0.254    0.254     0  01:00        1.47        1.47       0.219
  J6                   JUNCTION     0.000    0.758     0  01:03           0        4.25       0.668
  J7                   JUNCTION     0.135    0.135     0  01:00        0.68        0.68       0.128
  J8                   JUNCTION     0.097    0.097     0  01:00        0.46       0.459       0.120
  J9                   JUNCTION     0.088    0.184     0  01:00       0.408       0.867       0.273
  J10                  JUNCTION     0.262    0.262     0  01:00        1.35        1.35       0.429
  J11                  JUNCTION     0.382    0.730     0  01:02        2.48        4.31       0.831
  J12                  JUNCTION     0.000    1.031     0  01:06           0        5.92       0.132
  J13                  JUNCTION     0.000    0.724     0  01:04           0        4.27       0.596
  J14                  JUNCTION     0.285    0.285     0  01:00         1.7         1.7       0.387
  J15                  JUNCTION     0.272    0.272     0  01:00         1.6         1.6       0.306
  J16                  JUNCTION     0.000    0.453     0  01:02           0        2.46       0.893
  J17                  JUNCTION     0.342    1.065     0  01:05        2.14        6.39       0.444
  J18                  JUNCTION     0.000    3.102     0  01:07           0        18.3       0.888
  J20                  JUNCTION     0.000    1.030     0  01:06           0        6.03       0.744
  J21                  JUNCTION     0.000    0.702     0  01:04           0        3.99       1.254
  J23                  JUNCTION     0.266    0.266     0  01:00        1.55        1.55       0.131
  J24                  JUNCTION     0.352    0.352     0  01:00        2.09        2.09       0.280
  J25                  JUNCTION     0.102    0.102     0  01:00       0.487       0.487       0.170
  J19                  OUTFALL      0.000    3.094     0  01:09           0        18.1       0.000
  
  
  **********************
  Node Surcharge Summary
  **********************
  
  No nodes were surcharged.
  
  
  *********************
  Node Flooding Summary
  *********************
  
  No nodes were flooded.
  
  
  ***********************
  Outfall Loading Summary
  ***********************
  
  -----------------------------------------------------------
                         Flow       Avg       Max       Total
                         Freq      Flow      Flow      Volume
  Outfall Node           Pcnt       CMS       CMS    10^6 ltr
  -----------------------------------------------------------
  J19                  100.00     1.284     3.094      18.099
  -----------------------------------------------------------
  System               100.00     1.284     3.094      18.099
  
  
  ********************
  Link Flow Summary
  ********************
  
  -----------------------------------------------------------------------------
                                 Maximum  Time of Max   Maximum    Max/    Max/
                                  |Flow|   Occurrence   |Veloc|    Full    Full
  Link                 Type          CMS  days hr:min     m/sec    Flow   Depth
  -----------------------------------------------------------------------------
  C0                   CONDUIT     0.229     0  01:00      4.43    0.14    0.30
  C1                   CONDUIT     0.130     0  01:00      1.93    0.13    0.32
  C2                   CONDUIT     0.040     0  00:23      0.86    0.02    0.20
  C3                   CONDUIT     0.044     0  00:21      2.07    0.04    0.13
  C4                   CONDUIT     0.381     0  01:04      1.67    0.10    0.26
  C5                   CONDUIT     0.254     0  01:01      1.91    0.16    0.39
  C6                   CONDUIT     0.099     0  01:01      1.07    0.05    0.32
  C7                   CONDUIT     0.750     0  01:06      2.19    0.05    0.13
  C8                   CONDUIT     0.135     0  01:00      1.79    0.08    0.35
  C9                   CONDUIT     0.097     0  01:00      1.71    0.08    0.21
  C10                  CONDUIT     0.179     0  01:02      2.43    0.05    0.17
  C11                  CONDUIT     0.255     0  01:02      0.87    0.08    0.23
  C12                  CONDUIT     1.023     0  01:07      2.59    0.01    0.15
  C13                  CONDUIT     1.062     0  01:06      2.38    0.08    0.30
  C14                  CONDUIT     0.724     0  01:04      2.23    0.15    0.24
  C16                  CONDUIT     0.724     0  01:06      2.86    0.13    0.23
  C17                  CONDUIT     0.351     0  01:02      2.34    0.23    0.35
  C18                  CONDUIT     1.023     0  01:08      1.48    0.02    0.15
  C19                  CONDUIT     0.439     0  01:04      1.67    0.01    0.08
  C20                  CONDUIT     0.686     0  01:07      1.88    0.02    0.10
  C21                  CONDUIT     0.266     0  01:01      2.32    0.07    0.24
  C23                  CONDUIT     3.094     0  01:09      3.66    0.06    0.17
  C24                  CONDUIT     0.274     0  01:02      1.96    0.12    0.21
  C22                  CONDUIT     0.284     0  01:02      1.78    0.05    0.17
  
  
  ***************************
  Flow Classification Summary
  ***************************
  
  -------------------------------------------------------------------------------------
                      Adjusted    ---------- Fraction of Time in Flow Class ---------- 
                       /Actual         Up    Down  Sub   Sup   Up    Down  Norm  Inlet 
  Conduit               Length    Dry  Dry   Dry   Crit  Crit  Crit  Crit  Ltd   Ctrl  
  -------------------------------------------------------------------------------------
  C0                      1.00   0.00  0.00  0.00  0.05  0.95  0.00  0.00  1.00  0.00
  C1                      1.00   0.00  0.02  0.00  0.16  0.81  0.00  0.00  0.98  0.00
  C2                      1.00   0.00  0.03  0.00  0.97  0.00  0.00  0.00  0.97  0.00
  C3                      1.00   0.02  0.00  0.00  0.01  0.97  0.00  0.00  0.74  0.00
  C4                      1.00   0.00  0.00  0.00  0.36  0.64  0.00  0.00  1.00  0.00
  C5                      1.00   0.00  0.02  0.00  0.03  0.94  0.00  0.00  0.98  0.00
  C6                      1.00   0.02  0.00  0.00  0.94  0.03  0.00  0.00  0.98  0.00
  C7                      1.00   0.00  0.00  0.00  0.00  1.00  0.00  0.00  0.00  0.00
  C8                      1.00   0.00  0.02  0.00  0.93  0.05  0.00  0.00  0.98  0.00
  C9                      1.00   0.02  0.00  0.00  0.02  0.95  0.00  0.00  0.97  0.00
  C10                     1.00   0.02  0.00  0.00  0.01  0.97  0.00  0.00  0.93  0.00
  C11                     1.00   0.02  0.00  0.00  0.98  0.00  0.00  0.00  0.91  0.00
  C12                     1.00   0.00  0.00  0.00  0.87  0.13  0.00  0.00  0.99  0.00
  C13                     1.00   0.00  0.02  0.00  0.05  0.93  0.00  0.00  0.98  0.00
  C14                     1.00   0.02  0.00  0.00  0.03  0.95  0.00  0.00  0.21  0.00
  C16                     1.00   0.02  0.00  0.00  0.06  0.92  0.00  0.00  0.05  0.00
  C17                     1.00   0.02  0.00  0.00  0.02  0.96  0.00  0.00  0.90  0.00
  C18                     1.00   0.00  0.03  0.00  0.97  0.01  0.00  0.00  0.97  0.00
  C19                     1.00   0.02  0.00  0.00  0.04  0.94  0.00  0.00  0.97  0.00
  C20                     1.00   0.02  0.00  0.00  0.06  0.92  0.00  0.00  0.84  0.00
  C21                     1.00   0.02  0.00  0.00  0.02  0.96  0.00  0.00  0.94  0.00
  C23                     1.00   0.00  0.00  0.00  0.01  0.99  0.00  0.00  0.38  0.00
  C24                     1.00   0.02  0.00  0.00  0.02  0.95  0.00  0.00  0.00  0.00
  C22                     1.00   0.00  0.02  0.00  0.04  0.94  0.00  0.00  0.93  0.00
  
  
  *************************
  Conduit Surcharge Summary
  *************************
  
  No conduits were surcharged.
  
  
  ********************
  Subcatchment Results
  ********************
  
  <<< Subcatchment S1 >>>
  ---------------------------------------------------
  Date        Time        Precip.    Losses    Runoff
                            mm/hr     mm/hr       CMS
  ---------------------------------------------------
   08/03/2005 07:10:00      3.600     0.720    0.0000
   08/03/2005 07:15:00     30.000     6.000    0.0002
   08/03/2005 07:20:00     45.600     9.120    0.0138
   08/03/2005 07:25:00     24.000     4.800    0.0774
   08/03/2005 07:30:00     27.600     5.520    0.0929
   08/03/2005 07:35:00     13.200     2.640    0.1103
   08/03/2005 07:40:00     13.200     2.640    0.0918
   08/03/2005 07:45:00     15.600     3.120    0.0813
   08/03/2005 07:50:00     18.000     3.600    0.0795
   08/03/2005 07:55:00     13.200     2.640    0.0829
   08/03/2005 08:00:00     42.000     8.400    0.0761
   08/03/2005 08:05:00     20.400     4.080    0.1295
   08/03/2005 08:10:00     12.000     2.400    0.1168
   08/03/2005 08:15:00      1.200     0.240    0.0930
   08/03/2005 08:20:00      0.000     0.000    0.0607
   08/03/2005 08:25:00      1.200     0.240    0.0409
   08/03/2005 08:30:00     14.400     2.880    0.0307
   08/03/2005 08:35:00      3.600     0.720    0.0425
   08/03/2005 08:40:00      1.200     0.240    0.0351
   08/03/2005 08:45:00      0.000     0.000    0.0270
   08/03/2005 08:50:00      2.400     0.480    0.0201
   08/03/2005 08:55:00      3.600     0.720    0.0182
   08/03/2005 09:00:00     14.400     2.880    0.0181
   08/03/2005 09:05:00     20.400     4.080    0.0316
   08/03/2005 09:10:00      1.200     0.240    0.0528
   08/03/2005 09:15:00      0.000     0.000    0.0380
   08/03/2005 09:20:00      0.000     0.000    0.0273
   08/03/2005 09:25:00      0.000     0.000    0.0204
   08/03/2005 09:30:00      0.000     0.000    0.0157
   08/03/2005 09:35:00     10.800     2.160    0.0124
   08/03/2005 09:40:00     10.800     2.160    0.0216
   08/03/2005 09:45:00      7.200     1.440    0.0298
   08/03/2005 09:50:00     19.200     3.840    0.0313
   08/03/2005 09:55:00     19.200     3.840    0.0506
   08/03/2005 10:00:00     12.000     2.400    0.0656
   08/03/2005 10:05:00      8.400     1.680    0.0632
   08/03/2005 10:10:00      9.600     1.920    0.0557
   08/03/2005 10:15:00      6.000     1.200    0.0528
   08/03/2005 10:20:00      1.200     0.240    0.0452
   08/03/2005 10:25:00      2.400     0.480    0.0334
   08/03/2005 10:30:00      2.400     0.480    0.0274
   08/03/2005 10:35:00      3.600     0.720    0.0234
   08/03/2005 10:40:00      2.400     0.480    0.0219
   08/03/2005 10:45:00      3.600     0.720    0.0195
   08/03/2005 10:50:00      4.800     0.960    0.0191
   08/03/2005 10:55:00      2.400     0.480    0.0201
   08/03/2005 11:00:00      6.000     1.200    0.0182
   08/03/2005 11:05:00      2.400     0.480    0.0208
   08/03/2005 11:10:00      2.400     0.480    0.0187
  
  
  <<< Subcatchment S2 >>>
  ---------------------------------------------------
  Date        Time        Precip.    Losses    Runoff
                            mm/hr     mm/hr       CMS
  ---------------------------------------------------
   08/03/2005 07:10:00      3.600     1.800    0.0000
   08/03/2005 07:15:00     30.000    15.000    0.0000
   08/03/2005 07:20:00     45.600    22.800    0.0144
   08/03/2005 07:25:00     24.000    12.000    0.0886
   08/03/2005 07:30:00     27.600    13.800    0.1235
   08/03/2005 07:35:00     13.200     6.600    0.1627
   08/03/2005 07:40:00     13.200     6.600    0.1548
   08/03/2005 07:45:00     15.600     7.800    0.1491
   08/03/2005 07:50:00     18.000     9.000    0.1512
   08/03/2005 07:55:00     13.200     6.600    0.1591
   08/03/2005 08:00:00     42.000    21.000    0.1523
   08/03/2005 08:05:00     20.400    10.200    0.2282
   08/03/2005 08:10:00     12.000     6.000    0.2215
   08/03/2005 08:15:00      1.200     0.600    0.1926
   08/03/2005 08:20:00      0.000     0.000    0.1442
   08/03/2005 08:25:00      1.200     0.600    0.1092
   08/03/2005 08:30:00     14.400     7.200    0.0876
   08/03/2005 08:35:00      3.600     1.800    0.1002
   08/03/2005 08:40:00      1.200     0.600    0.0862
   08/03/2005 08:45:00      0.000     0.000    0.0710
   08/03/2005 08:50:00      2.400     1.200    0.0574
   08/03/2005 08:55:00      3.600     1.800    0.0514
   08/03/2005 09:00:00     14.400     7.200    0.0487
   08/03/2005 09:05:00     20.400    10.200    0.0665
   08/03/2005 09:10:00      1.200     0.600    0.0955
   08/03/2005 09:15:00      0.000     0.000    0.0777
   08/03/2005 09:20:00      0.000     0.000    0.0624
   08/03/2005 09:25:00      0.000     0.000    0.0510
   08/03/2005 09:30:00      0.000     0.000    0.0423
   08/03/2005 09:35:00     10.800     5.400    0.0355
   08/03/2005 09:40:00     10.800     5.400    0.0475
   08/03/2005 09:45:00      7.200     3.600    0.0585
   08/03/2005 09:50:00     19.200     9.600    0.0611
   08/03/2005 09:55:00     19.200     9.600    0.0879
   08/03/2005 10:00:00     12.000     6.000    0.1116
   08/03/2005 10:05:00      8.400     4.200    0.1138
   08/03/2005 10:10:00      9.600     4.800    0.1070
   08/03/2005 10:15:00      6.000     3.000    0.1047
   08/03/2005 10:20:00      1.200     0.600    0.0948
   08/03/2005 10:25:00      2.400     1.200    0.0772
   08/03/2005 10:30:00      2.400     1.200    0.0666
   08/03/2005 10:35:00      3.600     1.800    0.0586
   08/03/2005 10:40:00      2.400     1.200    0.0545
   08/03/2005 10:45:00      3.600     1.800    0.0491
   08/03/2005 10:50:00      4.800     2.400    0.0469
   08/03/2005 10:55:00      2.400     1.200    0.0471
   08/03/2005 11:00:00      6.000     3.000    0.0433
   08/03/2005 11:05:00      2.400     1.200    0.0462
   08/03/2005 11:10:00      2.400     1.200    0.0425
  
  
  <<< Subcatchment S3 >>>
  ---------------------------------------------------
  Date        Time        Precip.    Losses    Runoff
                            mm/hr     mm/hr       CMS
  ---------------------------------------------------
   08/03/2005 07:10:00      3.600     2.520    0.0000
   08/03/2005 07:15:00     30.000    21.000    0.0002
   08/03/2005 07:20:00     45.600    31.920    0.0111
   08/03/2005 07:25:00     24.000    16.800    0.0439
   08/03/2005 07:30:00     27.600    19.320    0.0340
   08/03/2005 07:35:00     13.200     9.240    0.0349
   08/03/2005 07:40:00     13.200     9.240    0.0223
   08/03/2005 07:45:00     15.600    10.920    0.0188
   08/03/2005 07:50:00     18.000    12.600    0.0195
   08/03/2005 07:55:00     13.200     9.240    0.0218
   08/03/2005 08:00:00     42.000    29.400    0.0186
   08/03/2005 08:05:00     20.400    14.280    0.0439
   08/03/2005 08:10:00     12.000     8.400    0.0308
   08/03/2005 08:15:00      1.200     0.840    0.0203
   08/03/2005 08:20:00      0.000     0.000    0.0092
   08/03/2005 08:25:00      1.200     0.840    0.0047
   08/03/2005 08:30:00     14.400    10.080    0.0033
   08/03/2005 08:35:00      3.600     2.520    0.0109
   08/03/2005 08:40:00      1.200     0.840    0.0075
   08/03/2005 08:45:00      0.000     0.000    0.0047
   08/03/2005 08:50:00      2.400     1.680    0.0028
   08/03/2005 08:55:00      3.600     2.520    0.0029
   08/03/2005 09:00:00     14.400    10.080    0.0036
   08/03/2005 09:05:00     20.400    14.280    0.0110
   08/03/2005 09:10:00      1.200     0.840    0.0203
   08/03/2005 09:15:00      0.000     0.000    0.0092
   08/03/2005 09:20:00      0.000     0.000    0.0047
   08/03/2005 09:25:00      0.000     0.000    0.0028
   08/03/2005 09:30:00      0.000     0.000    0.0018
   08/03/2005 09:35:00     10.800     7.560    0.0012
   08/03/2005 09:40:00     10.800     7.560    0.0064
   08/03/2005 09:45:00      7.200     5.040    0.0103
   08/03/2005 09:50:00     19.200    13.440    0.0097
   08/03/2005 09:55:00     19.200    13.440    0.0186
   08/03/2005 10:00:00     12.000     8.400    0.0225
   08/03/2005 10:05:00      8.400     5.880    0.0178
   08/03/2005 10:10:00      9.600     6.720    0.0135
   08/03/2005 10:15:00      6.000     4.200    0.0128
   08/03/2005 10:20:00      1.200     0.840    0.0099
   08/03/2005 10:25:00      2.400     1.680    0.0056
   08/03/2005 10:30:00      2.400     1.680    0.0045
   08/03/2005 10:35:00      3.600     2.520    0.0039
   08/03/2005 10:40:00      2.400     1.680    0.0042
   08/03/2005 10:45:00      3.600     2.520    0.0037
   08/03/2005 10:50:00      4.800     3.360    0.0041
   08/03/2005 10:55:00      2.400     1.680    0.0050
   08/03/2005 11:00:00      6.000     4.200    0.0041
   08/03/2005 11:05:00      2.400     1.680    0.0057
   08/03/2005 11:10:00      2.400     1.680    0.0045
  
  
  <<< Subcatchment S4 >>>
  ---------------------------------------------------
  Date        Time        Precip.    Losses    Runoff
                            mm/hr     mm/hr       CMS
  ---------------------------------------------------
   08/03/2005 07:10:00      3.600     2.880    0.0000
   08/03/2005 07:15:00     30.000    24.000    0.0000
   08/03/2005 07:20:00     45.600    36.480    0.0133
   08/03/2005 07:25:00     24.000    19.200    0.0698
   08/03/2005 07:30:00     27.600    22.080    0.0758
   08/03/2005 07:35:00     13.200    10.560    0.0852
   08/03/2005 07:40:00     13.200    10.560    0.0659
   08/03/2005 07:45:00     15.600    12.480    0.0565
   08/03/2005 07:50:00     18.000    14.400    0.0552
   08/03/2005 07:55:00     13.200    10.560    0.0582
   08/03/2005 08:00:00     42.000    33.600    0.0525
   08/03/2005 08:05:00     20.400    16.320    0.0972
   08/03/2005 08:10:00     12.000     9.600    0.0833
   08/03/2005 08:15:00      1.200     0.960    0.0631
   08/03/2005 08:20:00      0.000     0.000    0.0379
   08/03/2005 08:25:00      1.200     0.960    0.0239
   08/03/2005 08:30:00     14.400    11.520    0.0174
   08/03/2005 08:35:00      3.600     2.880    0.0283
   08/03/2005 08:40:00      1.200     0.960    0.0227
   08/03/2005 08:45:00      0.000     0.000    0.0167
   08/03/2005 08:50:00      2.400     1.920    0.0119
   08/03/2005 08:55:00      3.600     2.880    0.0109
   08/03/2005 09:00:00     14.400    11.520    0.0113
   08/03/2005 09:05:00     20.400    16.320    0.0230
   08/03/2005 09:10:00      1.200     0.960    0.0408
   08/03/2005 09:15:00      0.000     0.000    0.0268
   08/03/2005 09:20:00      0.000     0.000    0.0179
   08/03/2005 09:25:00      0.000     0.000    0.0126
   08/03/2005 09:30:00      0.000     0.000    0.0093
   08/03/2005 09:35:00     10.800     8.640    0.0071
   08/03/2005 09:40:00     10.800     8.640    0.0150
   08/03/2005 09:45:00      7.200     5.760    0.0220
   08/03/2005 09:50:00     19.200    15.360    0.0229
   08/03/2005 09:55:00     19.200    15.360    0.0390
   08/03/2005 10:00:00     12.000     9.600    0.0503
   08/03/2005 10:05:00      8.400     6.720    0.0464
   08/03/2005 10:10:00      9.600     7.680    0.0392
   08/03/2005 10:15:00      6.000     4.800    0.0367
   08/03/2005 10:20:00      1.200     0.960    0.0306
   08/03/2005 10:25:00      2.400     1.920    0.0213
   08/03/2005 10:30:00      2.400     1.920    0.0171
   08/03/2005 10:35:00      3.600     2.880    0.0145
   08/03/2005 10:40:00      2.400     1.920    0.0139
   08/03/2005 10:45:00      3.600     2.880    0.0123
   08/03/2005 10:50:00      4.800     3.840    0.0123
   08/03/2005 10:55:00      2.400     1.920    0.0135
   08/03/2005 11:00:00      6.000     4.800    0.0120
   08/03/2005 11:05:00      2.400     1.920    0.0144
   08/03/2005 11:10:00      2.400     1.920    0.0127
  
  
  <<< Subcatchment S5 >>>
  ---------------------------------------------------
  Date        Time        Precip.    Losses    Runoff
                            mm/hr     mm/hr       CMS
  ---------------------------------------------------
   08/03/2005 07:10:00      3.600     2.880    0.0000
   08/03/2005 07:15:00     30.000    24.000    0.0000
   08/03/2005 07:20:00     45.600    36.480    0.0138
   08/03/2005 07:25:00     24.000    19.200    0.0783
   08/03/2005 07:30:00     27.600    22.080    0.0952
   08/03/2005 07:35:00     13.200    10.560    0.1139
   08/03/2005 07:40:00     13.200    10.560    0.0957
   08/03/2005 07:45:00     15.600    12.480    0.0852
   08/03/2005 07:50:00     18.000    14.400    0.0834
   08/03/2005 07:55:00     13.200    10.560    0.0869
   08/03/2005 08:00:00     42.000    33.600    0.0799
   08/03/2005 08:05:00     20.400    16.320    0.1347
   08/03/2005 08:10:00     12.000     9.600    0.1222
   08/03/2005 08:15:00      1.200     0.960    0.0980
   08/03/2005 08:20:00      0.000     0.000    0.0645
   08/03/2005 08:25:00      1.200     0.960    0.0439
   08/03/2005 08:30:00     14.400    11.520    0.0331
   08/03/2005 08:35:00      3.600     2.880    0.0450
   08/03/2005 08:40:00      1.200     0.960    0.0372
   08/03/2005 08:45:00      0.000     0.000    0.0288
   08/03/2005 08:50:00      2.400     1.920    0.0216
   08/03/2005 08:55:00      3.600     2.880    0.0195
   08/03/2005 09:00:00     14.400    11.520    0.0193
   08/03/2005 09:05:00     20.400    16.320    0.0331
   08/03/2005 09:10:00      1.200     0.960    0.0548
   08/03/2005 09:15:00      0.000     0.000    0.0399
   08/03/2005 09:20:00      0.000     0.000    0.0289
   08/03/2005 09:25:00      0.000     0.000    0.0217
   08/03/2005 09:30:00      0.000     0.000    0.0168
   08/03/2005 09:35:00     10.800     8.640    0.0133
   08/03/2005 09:40:00     10.800     8.640    0.0227
   08/03/2005 09:45:00      7.200     5.760    0.0311
   08/03/2005 09:50:00     19.200    15.360    0.0327
   08/03/2005 09:55:00     19.200    15.360    0.0524
   08/03/2005 10:00:00     12.000     9.600    0.0680
   08/03/2005 10:05:00      8.400     6.720    0.0659
   08/03/2005 10:10:00      9.600     7.680    0.0583
   08/03/2005 10:15:00      6.000     4.800    0.0554
   08/03/2005 10:20:00      1.200     0.960    0.0477
   08/03/2005 10:25:00      2.400     1.920    0.0355
   08/03/2005 10:30:00      2.400     1.920    0.0292
   08/03/2005 10:35:00      3.600     2.880    0.0249
   08/03/2005 10:40:00      2.400     1.920    0.0234
   08/03/2005 10:45:00      3.600     2.880    0.0208
   08/03/2005 10:50:00      4.800     3.840    0.0202
   08/03/2005 10:55:00      2.400     1.920    0.0213
   08/03/2005 11:00:00      6.000     4.800    0.0192
   08/03/2005 11:05:00      2.400     1.920    0.0220
   08/03/2005 11:10:00      2.400     1.920    0.0197
  
  
  <<< Subcatchment S6 >>>
  ---------------------------------------------------
  Date        Time        Precip.    Losses    Runoff
                            mm/hr     mm/hr       CMS
  ---------------------------------------------------
   08/03/2005 07:10:00      3.600     1.440    0.0000
   08/03/2005 07:15:00     30.000    12.000    0.0000
   08/03/2005 07:20:00     45.600    18.240    0.0145
   08/03/2005 07:25:00     24.000     9.600    0.0902
   08/03/2005 07:30:00     27.600    11.040    0.1285
   08/03/2005 07:35:00     13.200     5.280    0.1724
   08/03/2005 07:40:00     13.200     5.280    0.1679
   08/03/2005 07:45:00     15.600     6.240    0.1645
   08/03/2005 07:50:00     18.000     7.200    0.1685
   08/03/2005 07:55:00     13.200     5.280    0.1783
   08/03/2005 08:00:00     42.000    16.800    0.1724
   08/03/2005 08:05:00     20.400     8.160    0.2539
   08/03/2005 08:10:00     12.000     4.800    0.2494
   08/03/2005 08:15:00      1.200     0.480    0.2202
   08/03/2005 08:20:00      0.000     0.000    0.1689
   08/03/2005 08:25:00      1.200     0.480    0.1305
   08/03/2005 08:30:00     14.400     5.760    0.1061
   08/03/2005 08:35:00      3.600     1.440    0.1188
   08/03/2005 08:40:00      1.200     0.480    0.1030
   08/03/2005 08:45:00      0.000     0.000    0.0858
   08/03/2005 08:50:00      2.400     0.960    0.0703
   08/03/2005 08:55:00      3.600     1.440    0.0631
   08/03/2005 09:00:00     14.400     5.760    0.0596
   08/03/2005 09:05:00     20.400     8.160    0.0782
   08/03/2005 09:10:00      1.200     0.480    0.1090
   08/03/2005 09:15:00      0.000     0.000    0.0902
   08/03/2005 09:20:00      0.000     0.000    0.0737
   08/03/2005 09:25:00      0.000     0.000    0.0611
   08/03/2005 09:30:00      0.000     0.000    0.0513
   08/03/2005 09:35:00     10.800     4.320    0.0436
   08/03/2005 09:40:00     10.800     4.320    0.0562
   08/03/2005 09:45:00      7.200     2.880    0.0677
   08/03/2005 09:50:00     19.200     7.680    0.0705
   08/03/2005 09:55:00     19.200     7.680    0.0990
   08/03/2005 10:00:00     12.000     4.800    0.1246
   08/03/2005 10:05:00      8.400     3.360    0.1278
   08/03/2005 10:10:00      9.600     3.840    0.1214
   08/03/2005 10:15:00      6.000     2.400    0.1194
   08/03/2005 10:20:00      1.200     0.480    0.1091
   08/03/2005 10:25:00      2.400     0.960    0.0903
   08/03/2005 10:30:00      2.400     0.960    0.0787
   08/03/2005 10:35:00      3.600     1.440    0.0697
   08/03/2005 10:40:00      2.400     0.960    0.0650
   08/03/2005 10:45:00      3.600     1.440    0.0588
   08/03/2005 10:50:00      4.800     1.920    0.0561
   08/03/2005 10:55:00      2.400     0.960    0.0560
   08/03/2005 11:00:00      6.000     2.400    0.0516
   08/03/2005 11:05:00      2.400     0.960    0.0545
   08/03/2005 11:10:00      2.400     0.960    0.0503
  
  
  <<< Subcatchment S7 >>>
  ---------------------------------------------------
  Date        Time        Precip.    Losses    Runoff
                            mm/hr     mm/hr       CMS
  ---------------------------------------------------
   08/03/2005 07:10:00      3.600     2.160    0.0000
   08/03/2005 07:15:00     30.000    18.000    0.0000
   08/03/2005 07:20:00     45.600    27.360    0.0134
   08/03/2005 07:25:00     24.000    14.400    0.0712
   08/03/2005 07:30:00     27.600    16.560    0.0787
   08/03/2005 07:35:00     13.200     7.920    0.0892
   08/03/2005 07:40:00     13.200     7.920    0.0699
   08/03/2005 07:45:00     15.600     9.360    0.0602
   08/03/2005 07:50:00     18.000    10.800    0.0588
   08/03/2005 07:55:00     13.200     7.920    0.0618
   08/03/2005 08:00:00     42.000    25.200    0.0559
   08/03/2005 08:05:00     20.400    12.240    0.1020
   08/03/2005 08:10:00     12.000     7.200    0.0883
   08/03/2005 08:15:00      1.200     0.720    0.0674
   08/03/2005 08:20:00      0.000     0.000    0.0411
   08/03/2005 08:25:00      1.200     0.720    0.0262
   08/03/2005 08:30:00     14.400     8.640    0.0192
   08/03/2005 08:35:00      3.600     2.160    0.0302
   08/03/2005 08:40:00      1.200     0.720    0.0244
   08/03/2005 08:45:00      0.000     0.000    0.0181
   08/03/2005 08:50:00      2.400     1.440    0.0130
   08/03/2005 08:55:00      3.600     2.160    0.0119
   08/03/2005 09:00:00     14.400     8.640    0.0122
   08/03/2005 09:05:00     20.400    12.240    0.0243
   08/03/2005 09:10:00      1.200     0.720    0.0425
   08/03/2005 09:15:00      0.000     0.000    0.0285
   08/03/2005 09:20:00      0.000     0.000    0.0192
   08/03/2005 09:25:00      0.000     0.000    0.0137
   08/03/2005 09:30:00      0.000     0.000    0.0102
   08/03/2005 09:35:00     10.800     6.480    0.0078
   08/03/2005 09:40:00     10.800     6.480    0.0159
   08/03/2005 09:45:00      7.200     4.320    0.0231
   08/03/2005 09:50:00     19.200    11.520    0.0241
   08/03/2005 09:55:00     19.200    11.520    0.0407
   08/03/2005 10:00:00     12.000     7.200    0.0526
   08/03/2005 10:05:00      8.400     5.040    0.0489
   08/03/2005 10:10:00      9.600     5.760    0.0416
   08/03/2005 10:15:00      6.000     3.600    0.0391
   08/03/2005 10:20:00      1.200     0.720    0.0327
   08/03/2005 10:25:00      2.400     1.440    0.0230
   08/03/2005 10:30:00      2.400     1.440    0.0186
   08/03/2005 10:35:00      3.600     2.160    0.0157
   08/03/2005 10:40:00      2.400     1.440    0.0150
   08/03/2005 10:45:00      3.600     2.160    0.0133
   08/03/2005 10:50:00      4.800     2.880    0.0132
   08/03/2005 10:55:00      2.400     1.440    0.0144
   08/03/2005 11:00:00      6.000     3.600    0.0129
   08/03/2005 11:05:00      2.400     1.440    0.0153
   08/03/2005 11:10:00      2.400     1.440    0.0135
  
  
  <<< Subcatchment S8 >>>
  ---------------------------------------------------
  Date        Time        Precip.    Losses    Runoff
                            mm/hr     mm/hr       CMS
  ---------------------------------------------------
   08/03/2005 07:10:00      3.600     1.080    0.0000
   08/03/2005 07:15:00     30.000     9.000    0.0000
   08/03/2005 07:20:00     45.600    13.680    0.0147
   08/03/2005 07:25:00     24.000     7.200    0.0951
   08/03/2005 07:30:00     27.600     8.280    0.1448
   08/03/2005 07:35:00     13.200     3.960    0.2059
   08/03/2005 07:40:00     13.200     3.960    0.2163
   08/03/2005 07:45:00     15.600     4.680    0.2252
   08/03/2005 07:50:00     18.000     5.400    0.2409
   08/03/2005 07:55:00     13.200     3.960    0.2626
   08/03/2005 08:00:00     42.000    12.600    0.2645
   08/03/2005 08:05:00     20.400     6.120    0.3727
   08/03/2005 08:10:00     12.000     3.600    0.3823
   08/03/2005 08:15:00      1.200     0.360    0.3573
   08/03/2005 08:20:00      0.000     0.000    0.2976
   08/03/2005 08:25:00      1.200     0.360    0.2476
   08/03/2005 08:30:00     14.400     4.320    0.2124
   08/03/2005 08:35:00      3.600     1.080    0.2259
   08/03/2005 08:40:00      1.200     0.360    0.2026
   08/03/2005 08:45:00      0.000     0.000    0.1765
   08/03/2005 08:50:00      2.400     0.720    0.1518
   08/03/2005 08:55:00      3.600     1.080    0.1382
   08/03/2005 09:00:00     14.400     4.320    0.1300
   08/03/2005 09:05:00     20.400     6.120    0.1523
   08/03/2005 09:10:00      1.200     0.360    0.1909
   08/03/2005 09:15:00      0.000     0.000    0.1670
   08/03/2005 09:20:00      0.000     0.000    0.1441
   08/03/2005 09:25:00      0.000     0.000    0.1254
   08/03/2005 09:30:00      0.000     0.000    0.1100
   08/03/2005 09:35:00     10.800     3.240    0.0970
   08/03/2005 09:40:00     10.800     3.240    0.1121
   08/03/2005 09:45:00      7.200     2.160    0.1260
   08/03/2005 09:50:00     19.200     5.760    0.1290
   08/03/2005 09:55:00     19.200     5.760    0.1651
   08/03/2005 10:00:00     12.000     3.600    0.1990
   08/03/2005 10:05:00      8.400     2.520    0.2066
   08/03/2005 10:10:00      9.600     2.880    0.2018
   08/03/2005 10:15:00      6.000     1.800    0.2014
   08/03/2005 10:20:00      1.200     0.360    0.1899
   08/03/2005 10:25:00      2.400     0.720    0.1662
   08/03/2005 10:30:00      2.400     0.720    0.1502
   08/03/2005 10:35:00      3.600     1.080    0.1369
   08/03/2005 10:40:00      2.400     0.720    0.1288
   08/03/2005 10:45:00      3.600     1.080    0.1189
   08/03/2005 10:50:00      4.800     1.440    0.1135
   08/03/2005 10:55:00      2.400     0.720    0.1118
   08/03/2005 11:00:00      6.000     1.800    0.1044
   08/03/2005 11:05:00      2.400     0.720    0.1068
   08/03/2005 11:10:00      2.400     0.720    0.1001
  
  
  <<< Subcatchment S9 >>>
  ---------------------------------------------------
  Date        Time        Precip.    Losses    Runoff
                            mm/hr     mm/hr       CMS
  ---------------------------------------------------
   08/03/2005 07:10:00      3.600     2.520    0.0000
   08/03/2005 07:15:00     30.000    21.000    0.0000
   08/03/2005 07:20:00     45.600    31.920    0.0146
   08/03/2005 07:25:00     24.000    16.800    0.0918
   08/03/2005 07:30:00     27.600    19.320    0.1337
   08/03/2005 07:35:00     13.200     9.240    0.1828
   08/03/2005 07:40:00     13.200     9.240    0.1823
   08/03/2005 07:45:00     15.600    10.920    0.1819
   08/03/2005 07:50:00     18.000    12.600    0.1886
   08/03/2005 07:55:00     13.200     9.240    0.2011
   08/03/2005 08:00:00     42.000    29.400    0.1967
   08/03/2005 08:05:00     20.400    14.280    0.2851
   08/03/2005 08:10:00     12.000     8.400    0.2836
   08/03/2005 08:15:00      1.200     0.840    0.2547
   08/03/2005 08:20:00      0.000     0.000    0.2003
   08/03/2005 08:25:00      1.200     0.840    0.1582
   08/03/2005 08:30:00     14.400    10.080    0.1307
   08/03/2005 08:35:00      3.600     2.520    0.1434
   08/03/2005 08:40:00      1.200     0.840    0.1255
   08/03/2005 08:45:00      0.000     0.000    0.1059
   08/03/2005 08:50:00      2.400     1.680    0.0881
   08/03/2005 08:55:00      3.600     2.520    0.0792
   08/03/2005 09:00:00     14.400    10.080    0.0746
   08/03/2005 09:05:00     20.400    14.280    0.0943
   08/03/2005 09:10:00      1.200     0.840    0.1270
   08/03/2005 09:15:00      0.000     0.000    0.1071
   08/03/2005 09:20:00      0.000     0.000    0.0890
   08/03/2005 09:25:00      0.000     0.000    0.0749
   08/03/2005 09:30:00      0.000     0.000    0.0637
   08/03/2005 09:35:00     10.800     7.560    0.0547
   08/03/2005 09:40:00     10.800     7.560    0.0680
   08/03/2005 09:45:00      7.200     5.040    0.0803
   08/03/2005 09:50:00     19.200    13.440    0.0832
   08/03/2005 09:55:00     19.200    13.440    0.1136
   08/03/2005 10:00:00     12.000     8.400    0.1415
   08/03/2005 10:05:00      8.400     5.880    0.1459
   08/03/2005 10:10:00      9.600     6.720    0.1399
   08/03/2005 10:15:00      6.000     4.200    0.1383
   08/03/2005 10:20:00      1.200     0.840    0.1277
   08/03/2005 10:25:00      2.400     1.680    0.1076
   08/03/2005 10:30:00      2.400     1.680    0.0948
   08/03/2005 10:35:00      3.600     2.520    0.0846
   08/03/2005 10:40:00      2.400     1.680    0.0790
   08/03/2005 10:45:00      3.600     2.520    0.0719
   08/03/2005 10:50:00      4.800     3.360    0.0685
   08/03/2005 10:55:00      2.400     1.680    0.0681
   08/03/2005 11:00:00      6.000     4.200    0.0630
   08/03/2005 11:05:00      2.400     1.680    0.0657
   08/03/2005 11:10:00      2.400     1.680    0.0610
  
  
  <<< Subcatchment S10 >>>
  ---------------------------------------------------
  Date        Time        Precip.    Losses    Runoff
                            mm/hr     mm/hr       CMS
  ---------------------------------------------------
   08/03/2005 07:10:00      3.600     2.160    0.0000
   08/03/2005 07:15:00     30.000    18.000    0.0000
   08/03/2005 07:20:00     45.600    27.360    0.0131
   08/03/2005 07:25:00     24.000    14.400    0.0669
   08/03/2005 07:30:00     27.600    16.560    0.0699
   08/03/2005 07:35:00     13.200     7.920    0.0772
   08/03/2005 07:40:00     13.200     7.920    0.0583
   08/03/2005 07:45:00     15.600     9.360    0.0495
   08/03/2005 07:50:00     18.000    10.800    0.0485
   08/03/2005 07:55:00     13.200     7.920    0.0514
   08/03/2005 08:00:00     42.000    25.200    0.0461
   08/03/2005 08:05:00     20.400    12.240    0.0881
   08/03/2005 08:10:00     12.000     7.200    0.0740
   08/03/2005 08:15:00      1.200     0.720    0.0551
   08/03/2005 08:20:00      0.000     0.000    0.0320
   08/03/2005 08:25:00      1.200     0.720    0.0197
   08/03/2005 08:30:00     14.400     8.640    0.0143
   08/03/2005 08:35:00      3.600     2.160    0.0248
   08/03/2005 08:40:00      1.200     0.720    0.0197
   08/03/2005 08:45:00      0.000     0.000    0.0143
   08/03/2005 08:50:00      2.400     1.440    0.0099
   08/03/2005 08:55:00      3.600     2.160    0.0092
   08/03/2005 09:00:00     14.400     8.640    0.0097
   08/03/2005 09:05:00     20.400    12.240    0.0208
   08/03/2005 09:10:00      1.200     0.720    0.0374
   08/03/2005 09:15:00      0.000     0.000    0.0238
   08/03/2005 09:20:00      0.000     0.000    0.0154
   08/03/2005 09:25:00      0.000     0.000    0.0106
   08/03/2005 09:30:00      0.000     0.000    0.0077
   08/03/2005 09:35:00     10.800     6.480    0.0058
   08/03/2005 09:40:00     10.800     6.480    0.0133
   08/03/2005 09:45:00      7.200     4.320    0.0199
   08/03/2005 09:50:00     19.200    11.520    0.0206
   08/03/2005 09:55:00     19.200    11.520    0.0357
   08/03/2005 10:00:00     12.000     7.200    0.0458
   08/03/2005 10:05:00      8.400     5.040    0.0416
   08/03/2005 10:10:00      9.600     5.760    0.0346
   08/03/2005 10:15:00      6.000     3.600    0.0323
   08/03/2005 10:20:00      1.200     0.720    0.0266
   08/03/2005 10:25:00      2.400     1.440    0.0182
   08/03/2005 10:30:00      2.400     1.440    0.0145
   08/03/2005 10:35:00      3.600     2.160    0.0123
   08/03/2005 10:40:00      2.400     1.440    0.0119
   08/03/2005 10:45:00      3.600     2.160    0.0105
   08/03/2005 10:50:00      4.800     2.880    0.0106
   08/03/2005 10:55:00      2.400     1.440    0.0118
   08/03/2005 11:00:00      6.000     3.600    0.0105
   08/03/2005 11:05:00      2.400     1.440    0.0128
   08/03/2005 11:10:00      2.400     1.440    0.0111
  
  
  <<< Subcatchment S11 >>>
  ---------------------------------------------------
  Date        Time        Precip.    Losses    Runoff
                            mm/hr     mm/hr       CMS
  ---------------------------------------------------
   08/03/2005 07:10:00      3.600     2.160    0.0000
   08/03/2005 07:15:00     30.000    18.000    0.0000
   08/03/2005 07:20:00     45.600    27.360    0.0244
   08/03/2005 07:25:00     24.000    14.400    0.1413
   08/03/2005 07:30:00     27.600    16.560    0.1773
   08/03/2005 07:35:00     13.200     7.920    0.2165
   08/03/2005 07:40:00     13.200     7.920    0.1868
   08/03/2005 07:45:00     15.600     9.360    0.1688
   08/03/2005 07:50:00     18.000    10.800    0.1660
   08/03/2005 07:55:00     13.200     7.920    0.1728
   08/03/2005 08:00:00     42.000    25.200    0.1600
   08/03/2005 08:05:00     20.400    12.240    0.2624
   08/03/2005 08:10:00     12.000     7.200    0.2417
   08/03/2005 08:15:00      1.200     0.720    0.1971
   08/03/2005 08:20:00      0.000     0.000    0.1336
   08/03/2005 08:25:00      1.200     0.720    0.0929
   08/03/2005 08:30:00     14.400     8.640    0.0709
   08/03/2005 08:35:00      3.600     2.160    0.0922
   08/03/2005 08:40:00      1.200     0.720    0.0769
   08/03/2005 08:45:00      0.000     0.000    0.0603
   08/03/2005 08:50:00      2.400     1.440    0.0460
   08/03/2005 08:55:00      3.600     2.160    0.0413
   08/03/2005 09:00:00     14.400     8.640    0.0404
   08/03/2005 09:05:00     20.400    12.240    0.0660
   08/03/2005 09:10:00      1.200     0.720    0.1063
   08/03/2005 09:15:00      0.000     0.000    0.0795
   08/03/2005 09:20:00      0.000     0.000    0.0589
   08/03/2005 09:25:00      0.000     0.000    0.0451
   08/03/2005 09:30:00      0.000     0.000    0.0355
   08/03/2005 09:35:00     10.800     6.480    0.0285
   08/03/2005 09:40:00     10.800     6.480    0.0457
   08/03/2005 09:45:00      7.200     4.320    0.0613
   08/03/2005 09:50:00     19.200    11.520    0.0645
   08/03/2005 09:55:00     19.200    11.520    0.1013
   08/03/2005 10:00:00     12.000     7.200    0.1312
   08/03/2005 10:05:00      8.400     5.040    0.1288
   08/03/2005 10:10:00      9.600     5.760    0.1155
   08/03/2005 10:15:00      6.000     3.600    0.1105
   08/03/2005 10:20:00      1.200     0.720    0.0960
   08/03/2005 10:25:00      2.400     1.440    0.0729
   08/03/2005 10:30:00      2.400     1.440    0.0606
   08/03/2005 10:35:00      3.600     2.160    0.0519
   08/03/2005 10:40:00      2.400     1.440    0.0485
   08/03/2005 10:45:00      3.600     2.160    0.0432
   08/03/2005 10:50:00      4.800     2.880    0.0418
   08/03/2005 10:55:00      2.400     1.440    0.0435
   08/03/2005 11:00:00      6.000     3.600    0.0394
   08/03/2005 11:05:00      2.400     1.440    0.0443
   08/03/2005 11:10:00      2.400     1.440    0.0400
  
  
  <<< Subcatchment S12 >>>
  ---------------------------------------------------
  Date        Time        Precip.    Losses    Runoff
                            mm/hr     mm/hr       CMS
  ---------------------------------------------------
   08/03/2005 07:10:00      3.600     1.440    0.0000
   08/03/2005 07:15:00     30.000    12.000    0.0000
   08/03/2005 07:20:00     45.600    18.240    0.0147
   08/03/2005 07:25:00     24.000     9.600    0.0939
   08/03/2005 07:30:00     27.600    11.040    0.1409
   08/03/2005 07:35:00     13.200     5.280    0.1975
   08/03/2005 07:40:00     13.200     5.280    0.2036
   08/03/2005 07:45:00     15.600     6.240    0.2087
   08/03/2005 07:50:00     18.000     7.200    0.2205
   08/03/2005 07:55:00     13.200     5.280    0.2383
   08/03/2005 08:00:00     42.000    16.800    0.2373
   08/03/2005 08:05:00     20.400     8.160    0.3373
   08/03/2005 08:10:00     12.000     4.800    0.3421
   08/03/2005 08:15:00      1.200     0.480    0.3149
   08/03/2005 08:20:00      0.000     0.000    0.2568
   08/03/2005 08:25:00      1.200     0.480    0.2095
   08/03/2005 08:30:00     14.400     5.760    0.1771
   08/03/2005 08:35:00      3.600     1.440    0.1901
   08/03/2005 08:40:00      1.200     0.480    0.1689
   08/03/2005 08:45:00      0.000     0.000    0.1453
   08/03/2005 08:50:00      2.400     0.960    0.1234
   08/03/2005 08:55:00      3.600     1.440    0.1118
   08/03/2005 09:00:00     14.400     5.760    0.1051
   08/03/2005 09:05:00     20.400     8.160    0.1263
   08/03/2005 09:10:00      1.200     0.480    0.1625
   08/03/2005 09:15:00      0.000     0.000    0.1403
   08/03/2005 09:20:00      0.000     0.000    0.1194
   08/03/2005 09:25:00      0.000     0.000    0.1026
   08/03/2005 09:30:00      0.000     0.000    0.0890
   08/03/2005 09:35:00     10.800     4.320    0.0778
   08/03/2005 09:40:00     10.800     4.320    0.0921
   08/03/2005 09:45:00      7.200     2.880    0.1054
   08/03/2005 09:50:00     19.200     7.680    0.1084
   08/03/2005 09:55:00     19.200     7.680    0.1422
   08/03/2005 10:00:00     12.000     4.800    0.1737
   08/03/2005 10:05:00      8.400     3.360    0.1800
   08/03/2005 10:10:00      9.600     3.840    0.1747
   08/03/2005 10:15:00      6.000     2.400    0.1738
   08/03/2005 10:20:00      1.200     0.480    0.1627
   08/03/2005 10:25:00      2.400     0.960    0.1404
   08/03/2005 10:30:00      2.400     0.960    0.1257
   08/03/2005 10:35:00      3.600     1.440    0.1136
   08/03/2005 10:40:00      2.400     0.960    0.1066
   08/03/2005 10:45:00      3.600     1.440    0.0979
   08/03/2005 10:50:00      4.800     1.920    0.0933
   08/03/2005 10:55:00      2.400     0.960    0.0922
   08/03/2005 11:00:00      6.000     2.400    0.0857
   08/03/2005 11:05:00      2.400     0.960    0.0883
   08/03/2005 11:10:00      2.400     0.960    0.0824
  
  
  <<< Subcatchment S13 >>>
  ---------------------------------------------------
  Date        Time        Precip.    Losses    Runoff
                            mm/hr     mm/hr       CMS
  ---------------------------------------------------
   08/03/2005 07:10:00      3.600     1.440    0.0000
   08/03/2005 07:15:00     30.000    12.000    0.0000
   08/03/2005 07:20:00     45.600    18.240    0.0182
   08/03/2005 07:25:00     24.000     9.600    0.1145
   08/03/2005 07:30:00     27.600    11.040    0.1665
   08/03/2005 07:35:00     13.200     5.280    0.2270
   08/03/2005 07:40:00     13.200     5.280    0.2258
   08/03/2005 07:45:00     15.600     6.240    0.2249
   08/03/2005 07:50:00     18.000     7.200    0.2328
   08/03/2005 07:55:00     13.200     5.280    0.2481
   08/03/2005 08:00:00     42.000    16.800    0.2422
   08/03/2005 08:05:00     20.400     8.160    0.3517
   08/03/2005 08:10:00     12.000     4.800    0.3494
   08/03/2005 08:15:00      1.200     0.480    0.3132
   08/03/2005 08:20:00      0.000     0.000    0.2456
   08/03/2005 08:25:00      1.200     0.480    0.1935
   08/03/2005 08:30:00     14.400     5.760    0.1595
   08/03/2005 08:35:00      3.600     1.440    0.1754
   08/03/2005 08:40:00      1.200     0.480    0.1534
   08/03/2005 08:45:00      0.000     0.000    0.1293
   08/03/2005 08:50:00      2.400     0.960    0.1073
   08/03/2005 08:55:00      3.600     1.440    0.0965
   08/03/2005 09:00:00     14.400     5.760    0.0909
   08/03/2005 09:05:00     20.400     8.160    0.1153
   08/03/2005 09:10:00      1.200     0.480    0.1560
   08/03/2005 09:15:00      0.000     0.000    0.1312
   08/03/2005 09:20:00      0.000     0.000    0.1088
   08/03/2005 09:25:00      0.000     0.000    0.0914
   08/03/2005 09:30:00      0.000     0.000    0.0777
   08/03/2005 09:35:00     10.800     4.320    0.0667
   08/03/2005 09:40:00     10.800     4.320    0.0832
   08/03/2005 09:45:00      7.200     2.880    0.0984
   08/03/2005 09:50:00     19.200     7.680    0.1020
   08/03/2005 09:55:00     19.200     7.680    0.1398
   08/03/2005 10:00:00     12.000     4.800    0.1742
   08/03/2005 10:05:00      8.400     3.360    0.1796
   08/03/2005 10:10:00      9.600     3.840    0.1721
   08/03/2005 10:15:00      6.000     2.400    0.1700
   08/03/2005 10:20:00      1.200     0.480    0.1567
   08/03/2005 10:25:00      2.400     0.960    0.1318
   08/03/2005 10:30:00      2.400     0.960    0.1160
   08/03/2005 10:35:00      3.600     1.440    0.1035
   08/03/2005 10:40:00      2.400     0.960    0.0966
   08/03/2005 10:45:00      3.600     1.440    0.0878
   08/03/2005 10:50:00      4.800     1.920    0.0837
   08/03/2005 10:55:00      2.400     0.960    0.0832
   08/03/2005 11:00:00      6.000     2.400    0.0769
   08/03/2005 11:05:00      2.400     0.960    0.0804
   08/03/2005 11:10:00      2.400     0.960    0.0746
  
  
  <<< Subcatchment S14 >>>
  ---------------------------------------------------
  Date        Time        Precip.    Losses    Runoff
                            mm/hr     mm/hr       CMS
  ---------------------------------------------------
   08/03/2005 07:10:00      3.600     2.160    0.0000
   08/03/2005 07:15:00     30.000    18.000    0.0000
   08/03/2005 07:20:00     45.600    27.360    0.0145
   08/03/2005 07:25:00     24.000    14.400    0.0912
   08/03/2005 07:30:00     27.600    16.560    0.1317
   08/03/2005 07:35:00     13.200     7.920    0.1786
   08/03/2005 07:40:00     13.200     7.920    0.1765
   08/03/2005 07:45:00     15.600     9.360    0.1748
   08/03/2005 07:50:00     18.000    10.800    0.1804
   08/03/2005 07:55:00     13.200     7.920    0.1918
   08/03/2005 08:00:00     42.000    25.200    0.1866
   08/03/2005 08:05:00     20.400    12.240    0.2722
   08/03/2005 08:10:00     12.000     7.200    0.2694
   08/03/2005 08:15:00      1.200     0.720    0.2403
   08/03/2005 08:20:00      0.000     0.000    0.1871
   08/03/2005 08:25:00      1.200     0.720    0.1465
   08/03/2005 08:30:00     14.400     8.640    0.1202
   08/03/2005 08:35:00      3.600     2.160    0.1329
   08/03/2005 08:40:00      1.200     0.720    0.1159
   08/03/2005 08:45:00      0.000     0.000    0.0973
   08/03/2005 08:50:00      2.400     1.440    0.0804
   08/03/2005 08:55:00      3.600     2.160    0.0723
   08/03/2005 09:00:00     14.400     8.640    0.0681
   08/03/2005 09:05:00     20.400    12.240    0.0874
   08/03/2005 09:10:00      1.200     0.720    0.1193
   08/03/2005 09:15:00      0.000     0.000    0.0999
   08/03/2005 09:20:00      0.000     0.000    0.0824
   08/03/2005 09:25:00      0.000     0.000    0.0689
   08/03/2005 09:30:00      0.000     0.000    0.0584
   08/03/2005 09:35:00     10.800     6.480    0.0499
   08/03/2005 09:40:00     10.800     6.480    0.0629
   08/03/2005 09:45:00      7.200     4.320    0.0749
   08/03/2005 09:50:00     19.200    11.520    0.0777
   08/03/2005 09:55:00     19.200    11.520    0.1074
   08/03/2005 10:00:00     12.000     7.200    0.1343
   08/03/2005 10:05:00      8.400     5.040    0.1383
   08/03/2005 10:10:00      9.600     5.760    0.1321
   08/03/2005 10:15:00      6.000     3.600    0.1303
   08/03/2005 10:20:00      1.200     0.720    0.1198
   08/03/2005 10:25:00      2.400     1.440    0.1003
   08/03/2005 10:30:00      2.400     1.440    0.0879
   08/03/2005 10:35:00      3.600     2.160    0.0783
   08/03/2005 10:40:00      2.400     1.440    0.0730
   08/03/2005 10:45:00      3.600     2.160    0.0663
   08/03/2005 10:50:00      4.800     2.880    0.0632
   08/03/2005 10:55:00      2.400     1.440    0.0629
   08/03/2005 11:00:00      6.000     3.600    0.0581
   08/03/2005 11:05:00      2.400     1.440    0.0609
   08/03/2005 11:10:00      2.400     1.440    0.0564
  
  
  <<< Subcatchment S15 >>>
  ---------------------------------------------------
  Date        Time        Precip.    Losses    Runoff
                            mm/hr     mm/hr       CMS
  ---------------------------------------------------
   08/03/2005 07:10:00      3.600     1.800    0.0000
   08/03/2005 07:15:00     30.000    15.000    0.0000
   08/03/2005 07:20:00     45.600    22.800    0.0145
   08/03/2005 07:25:00     24.000    12.000    0.0908
   08/03/2005 07:30:00     27.600    13.800    0.1306
   08/03/2005 07:35:00     13.200     6.600    0.1765
   08/03/2005 07:40:00     13.200     6.600    0.1734
   08/03/2005 07:45:00     15.600     7.800    0.1711
   08/03/2005 07:50:00     18.000     9.000    0.1761
   08/03/2005 07:55:00     13.200     6.600    0.1869
   08/03/2005 08:00:00     42.000    21.000    0.1815
   08/03/2005 08:05:00     20.400    10.200    0.2656
   08/03/2005 08:10:00     12.000     6.000    0.2622
   08/03/2005 08:15:00      1.200     0.600    0.2330
   08/03/2005 08:20:00      0.000     0.000    0.1805
   08/03/2005 08:25:00      1.200     0.600    0.1407
   08/03/2005 08:30:00     14.400     7.200    0.1150
   08/03/2005 08:35:00      3.600     1.800    0.1277
   08/03/2005 08:40:00      1.200     0.600    0.1112
   08/03/2005 08:45:00      0.000     0.000    0.0931
   08/03/2005 08:50:00      2.400     1.200    0.0767
   08/03/2005 08:55:00      3.600     1.800    0.0689
   08/03/2005 09:00:00     14.400     7.200    0.0650
   08/03/2005 09:05:00     20.400    10.200    0.0840
   08/03/2005 09:10:00      1.200     0.600    0.1155
   08/03/2005 09:15:00      0.000     0.000    0.0963
   08/03/2005 09:20:00      0.000     0.000    0.0792
   08/03/2005 09:25:00      0.000     0.000    0.0660
   08/03/2005 09:30:00      0.000     0.000    0.0557
   08/03/2005 09:35:00     10.800     5.400    0.0476
   08/03/2005 09:40:00     10.800     5.400    0.0604
   08/03/2005 09:45:00      7.200     3.600    0.0723
   08/03/2005 09:50:00     19.200     9.600    0.0751
   08/03/2005 09:55:00     19.200     9.600    0.1043
   08/03/2005 10:00:00     12.000     6.000    0.1308
   08/03/2005 10:05:00      8.400     4.200    0.1345
   08/03/2005 10:10:00      9.600     4.800    0.1282
   08/03/2005 10:15:00      6.000     3.000    0.1263
   08/03/2005 10:20:00      1.200     0.600    0.1159
   08/03/2005 10:25:00      2.400     1.200    0.0966
   08/03/2005 10:30:00      2.400     1.200    0.0846
   08/03/2005 10:35:00      3.600     1.800    0.0751
   08/03/2005 10:40:00      2.400     1.200    0.0701
   08/03/2005 10:45:00      3.600     1.800    0.0636
   08/03/2005 10:50:00      4.800     2.400    0.0606
   08/03/2005 10:55:00      2.400     1.200    0.0604
   08/03/2005 11:00:00      6.000     3.000    0.0557
   08/03/2005 11:05:00      2.400     1.200    0.0585
   08/03/2005 11:10:00      2.400     1.200    0.0542
  
  
  ************
  Node Results
  ************
  
  <<< Node J0 >>>
  ----------------------------------------------------------------
                           Inflow  Flooding     Depth      Head
  Date        Time            CMS       CMS    meters    meters
  ----------------------------------------------------------------
   08/03/2005 07:10:00      0.000     0.000     0.011    31.001
   08/03/2005 07:15:00      0.000     0.000     0.007    30.997
   08/03/2005 07:20:00      0.014     0.000     0.040    31.030
   08/03/2005 07:25:00      0.088     0.000     0.104    31.094
   08/03/2005 07:30:00      0.121     0.000     0.126    31.116
   08/03/2005 07:35:00      0.161     0.000     0.145    31.135
   08/03/2005 07:40:00      0.155     0.000     0.144    31.134
   08/03/2005 07:45:00      0.149     0.000     0.142    31.132
   08/03/2005 07:50:00      0.151     0.000     0.142    31.132
   08/03/2005 07:55:00      0.159     0.000     0.145    31.135
   08/03/2005 08:00:00      0.153     0.000     0.143    31.133
   08/03/2005 08:05:00      0.225     0.000     0.171    31.161
   08/03/2005 08:10:00      0.222     0.000     0.172    31.162
   08/03/2005 08:15:00      0.195     0.000     0.162    31.152
   08/03/2005 08:20:00      0.144     0.000     0.141    31.131
   08/03/2005 08:25:00      0.110     0.000     0.123    31.113
   08/03/2005 08:30:00      0.090     0.000     0.111    31.101
   08/03/2005 08:35:00      0.100     0.000     0.115    31.105
   08/03/2005 08:40:00      0.087     0.000     0.109    31.099
   08/03/2005 08:45:00      0.072     0.000     0.100    31.090
   08/03/2005 08:50:00      0.059     0.000     0.090    31.080
   08/03/2005 08:55:00      0.052     0.000     0.085    31.075
   08/03/2005 09:00:00      0.049     0.000     0.082    31.072
   08/03/2005 09:05:00      0.065     0.000     0.093    31.083
   08/03/2005 09:10:00      0.093     0.000     0.111    31.101
   08/03/2005 09:15:00      0.078     0.000     0.104    31.094
   08/03/2005 09:20:00      0.064     0.000     0.094    31.084
   08/03/2005 09:25:00      0.052     0.000     0.085    31.075
   08/03/2005 09:30:00      0.043     0.000     0.078    31.068
   08/03/2005 09:35:00      0.036     0.000     0.072    31.062
   08/03/2005 09:40:00      0.046     0.000     0.079    31.069
   08/03/2005 09:45:00      0.057     0.000     0.088    31.078
   08/03/2005 09:50:00      0.061     0.000     0.091    31.081
   08/03/2005 09:55:00      0.085     0.000     0.106    31.096
   08/03/2005 10:00:00      0.110     0.000     0.121    31.111
   08/03/2005 10:05:00      0.114     0.000     0.123    31.113
   08/03/2005 10:10:00      0.107     0.000     0.120    31.110
   08/03/2005 10:15:00      0.105     0.000     0.119    31.109
   08/03/2005 10:20:00      0.095     0.000     0.114    31.104
   08/03/2005 10:25:00      0.078     0.000     0.104    31.094
   08/03/2005 10:30:00      0.067     0.000     0.096    31.086
   08/03/2005 10:35:00      0.059     0.000     0.090    31.080
   08/03/2005 10:40:00      0.055     0.000     0.087    31.077
   08/03/2005 10:45:00      0.049     0.000     0.083    31.073
   08/03/2005 10:50:00      0.047     0.000     0.081    31.071
   08/03/2005 10:55:00      0.047     0.000     0.081    31.071
   08/03/2005 11:00:00      0.043     0.000     0.078    31.068
   08/03/2005 11:05:00      0.046     0.000     0.079    31.069
   08/03/2005 11:10:00      0.043     0.000     0.077    31.067
  
  
  <<< Node J1 >>>
  ----------------------------------------------------------------
                           Inflow  Flooding     Depth      Head
  Date        Time            CMS       CMS    meters    meters
  ----------------------------------------------------------------
   08/03/2005 07:10:00      0.000     0.000     0.000    28.990
   08/03/2005 07:15:00      0.000     0.000     0.002    28.992
   08/03/2005 07:20:00      0.014     0.000     0.044    29.034
   08/03/2005 07:25:00      0.077     0.000     0.108    29.098
   08/03/2005 07:30:00      0.092     0.000     0.121    29.111
   08/03/2005 07:35:00      0.109     0.000     0.132    29.122
   08/03/2005 07:40:00      0.093     0.000     0.123    29.113
   08/03/2005 07:45:00      0.082     0.000     0.115    29.105
   08/03/2005 07:50:00      0.080     0.000     0.113    29.103
   08/03/2005 07:55:00      0.083     0.000     0.115    29.105
   08/03/2005 08:00:00      0.077     0.000     0.111    29.101
   08/03/2005 08:05:00      0.127     0.000     0.141    29.131
   08/03/2005 08:10:00      0.117     0.000     0.138    29.128
   08/03/2005 08:15:00      0.095     0.000     0.124    29.114
   08/03/2005 08:20:00      0.061     0.000     0.102    29.092
   08/03/2005 08:25:00      0.041     0.000     0.084    29.074
   08/03/2005 08:30:00      0.032     0.000     0.073    29.063
   08/03/2005 08:35:00      0.042     0.000     0.082    29.072
   08/03/2005 08:40:00      0.036     0.000     0.077    29.067
   08/03/2005 08:45:00      0.028     0.000     0.069    29.059
   08/03/2005 08:50:00      0.021     0.000     0.060    29.050
   08/03/2005 08:55:00      0.018     0.000     0.056    29.046
   08/03/2005 09:00:00      0.018     0.000     0.055    29.045
   08/03/2005 09:05:00      0.030     0.000     0.070    29.060
   08/03/2005 09:10:00      0.051     0.000     0.090    29.080
   08/03/2005 09:15:00      0.038     0.000     0.081    29.071
   08/03/2005 09:20:00      0.028     0.000     0.070    29.060
   08/03/2005 09:25:00      0.021     0.000     0.060    29.050
   08/03/2005 09:30:00      0.016     0.000     0.053    29.043
   08/03/2005 09:35:00      0.013     0.000     0.048    29.038
   08/03/2005 09:40:00      0.021     0.000     0.058    29.048
   08/03/2005 09:45:00      0.029     0.000     0.069    29.059
   08/03/2005 09:50:00      0.031     0.000     0.072    29.062
   08/03/2005 09:55:00      0.049     0.000     0.088    29.078
   08/03/2005 10:00:00      0.065     0.000     0.102    29.092
   08/03/2005 10:05:00      0.063     0.000     0.101    29.091
   08/03/2005 10:10:00      0.056     0.000     0.096    29.086
   08/03/2005 10:15:00      0.053     0.000     0.093    29.083
   08/03/2005 10:20:00      0.045     0.000     0.087    29.077
   08/03/2005 10:25:00      0.034     0.000     0.076    29.066
   08/03/2005 10:30:00      0.028     0.000     0.069    29.059
   08/03/2005 10:35:00      0.024     0.000     0.063    29.053
   08/03/2005 10:40:00      0.022     0.000     0.061    29.051
   08/03/2005 10:45:00      0.020     0.000     0.058    29.048
   08/03/2005 10:50:00      0.019     0.000     0.057    29.047
   08/03/2005 10:55:00      0.020     0.000     0.058    29.048
   08/03/2005 11:00:00      0.018     0.000     0.056    29.046
   08/03/2005 11:05:00      0.021     0.000     0.059    29.049
   08/03/2005 11:10:00      0.019     0.000     0.057    29.047
  
  
  <<< Node J2 >>>
  ----------------------------------------------------------------
                           Inflow  Flooding     Depth      Head
  Date        Time            CMS       CMS    meters    meters
  ----------------------------------------------------------------
   08/03/2005 07:10:00      0.001     0.000     0.066    26.056
   08/03/2005 07:15:00      0.000     0.000     0.042    26.032
   08/03/2005 07:20:00      0.022     0.000     0.040    26.030
   08/03/2005 07:25:00      0.167     0.000     0.111    26.101
   08/03/2005 07:30:00      0.246     0.000     0.187    26.177
   08/03/2005 07:35:00      0.299     0.000     0.213    26.203
   08/03/2005 07:40:00      0.279     0.000     0.219    26.209
   08/03/2005 07:45:00      0.254     0.000     0.209    26.199
   08/03/2005 07:50:00      0.250     0.000     0.204    26.194
   08/03/2005 07:55:00      0.261     0.000     0.206    26.196
   08/03/2005 08:00:00      0.251     0.000     0.206    26.196
   08/03/2005 08:05:00      0.369     0.000     0.228    26.218
   08/03/2005 08:10:00      0.378     0.000     0.250    26.240
   08/03/2005 08:15:00      0.320     0.000     0.237    26.227
   08/03/2005 08:20:00      0.233     0.000     0.211    26.201
   08/03/2005 08:25:00      0.168     0.000     0.181    26.171
   08/03/2005 08:30:00      0.130     0.000     0.158    26.148
   08/03/2005 08:35:00      0.144     0.000     0.152    26.142
   08/03/2005 08:40:00      0.134     0.000     0.154    26.144
   08/03/2005 08:45:00      0.110     0.000     0.144    26.134
   08/03/2005 08:50:00      0.087     0.000     0.130    26.120
   08/03/2005 08:55:00      0.075     0.000     0.119    26.109
   08/03/2005 09:00:00      0.071     0.000     0.113    26.103
   08/03/2005 09:05:00      0.097     0.000     0.119    26.109
   08/03/2005 09:10:00      0.152     0.000     0.144    26.134
   08/03/2005 09:15:00      0.137     0.000     0.157    26.147
   08/03/2005 09:20:00      0.104     0.000     0.142    26.132
   08/03/2005 09:25:00      0.080     0.000     0.126    26.116
   08/03/2005 09:30:00      0.064     0.000     0.113    26.103
   08/03/2005 09:35:00      0.052     0.000     0.103    26.093
   08/03/2005 09:40:00      0.067     0.000     0.102    26.092
   08/03/2005 09:45:00      0.091     0.000     0.115    26.105
   08/03/2005 09:50:00      0.101     0.000     0.128    26.118
   08/03/2005 09:55:00      0.142     0.000     0.142    26.132
   08/03/2005 10:00:00      0.190     0.000     0.167    26.157
   08/03/2005 10:05:00      0.197     0.000     0.180    26.170
   08/03/2005 10:10:00      0.181     0.000     0.177    26.167
   08/03/2005 10:15:00      0.172     0.000     0.172    26.162
[...]
   08/03/2005 07:45:00      0.297     1.435     0.203     0.029
   08/03/2005 07:50:00      0.284     1.408     0.199     0.029
   08/03/2005 07:55:00      0.290     1.422     0.200     0.029
   08/03/2005 08:00:00      0.295     1.427     0.202     0.029
   08/03/2005 08:05:00      0.346     1.528     0.215     0.032
   08/03/2005 08:10:00      0.439     1.660     0.240     0.037
   08/03/2005 08:15:00      0.402     1.559     0.236     0.036
   08/03/2005 08:20:00      0.327     1.429     0.217     0.032
   08/03/2005 08:25:00      0.243     1.280     0.191     0.027
   08/03/2005 08:30:00      0.185     1.164     0.169     0.022
   08/03/2005 08:35:00      0.165     1.136     0.159     0.021
   08/03/2005 08:40:00      0.174     1.191     0.160     0.021
   08/03/2005 08:45:00      0.153     1.119     0.152     0.019
   08/03/2005 08:50:00      0.127     1.040     0.141     0.017
   08/03/2005 08:55:00      0.105     0.982     0.129     0.015
   08/03/2005 09:00:00      0.094     0.964     0.122     0.014
   08/03/2005 09:05:00      0.098     1.004     0.122     0.014
   08/03/2005 09:10:00      0.140     1.171     0.139     0.017
   08/03/2005 09:15:00      0.177     1.258     0.155     0.020
   08/03/2005 09:20:00      0.146     1.119     0.148     0.019
   08/03/2005 09:25:00      0.116     1.021     0.135     0.016
   08/03/2005 09:30:00      0.094     0.958     0.122     0.014
   08/03/2005 09:35:00      0.077     0.901     0.112     0.012
   08/03/2005 09:40:00      0.071     0.889     0.107     0.011
   08/03/2005 09:45:00      0.090     1.014     0.115     0.013
   08/03/2005 09:50:00      0.112     1.097     0.126     0.014
   08/03/2005 09:55:00      0.134     1.151     0.137     0.016
   08/03/2005 10:00:00      0.189     1.312     0.158     0.020
   08/03/2005 10:05:00      0.225     1.369     0.174     0.023
   08/03/2005 10:10:00      0.220     1.323     0.175     0.024
   08/03/2005 10:15:00      0.206     1.275     0.171     0.023
   08/03/2005 10:20:00      0.194     1.242     0.167     0.022
   08/03/2005 10:25:00      0.169     1.167     0.158     0.020
   08/03/2005 10:30:00      0.140     1.081     0.147     0.018
   08/03/2005 10:35:00      0.120     1.031     0.136     0.016
   08/03/2005 10:40:00      0.106     1.002     0.129     0.015
   08/03/2005 10:45:00      0.098     0.989     0.123     0.014
   08/03/2005 10:50:00      0.090     0.970     0.119     0.013
   08/03/2005 10:55:00      0.087     0.966     0.116     0.013
   08/03/2005 11:00:00      0.086     0.970     0.115     0.013
   08/03/2005 11:05:00      0.083     0.959     0.113     0.012
   08/03/2005 11:10:00      0.085     0.975     0.114     0.012
  
  
  <<< Link C20 >>>
  ----------------------------------------------------------------
                             Flow  Velocity     Depth  Capacity/
  Date        Time            CMS     m/sec    meters   Setting 
  ----------------------------------------------------------------
   08/03/2005 07:10:00      0.000     0.000     0.000     0.000
   08/03/2005 07:15:00      0.000     0.000     0.001     0.000
   08/03/2005 07:20:00      0.001     0.355     0.011     0.001
   08/03/2005 07:25:00      0.023     0.690     0.059     0.005
   08/03/2005 07:30:00      0.179     1.288     0.154     0.020
   08/03/2005 07:35:00      0.377     1.608     0.221     0.033
   08/03/2005 07:40:00      0.484     1.722     0.250     0.040
   08/03/2005 07:45:00      0.480     1.697     0.251     0.040
   08/03/2005 07:50:00      0.463     1.668     0.248     0.039
   08/03/2005 07:55:00      0.467     1.668     0.249     0.040
   08/03/2005 08:00:00      0.479     1.682     0.252     0.040
   08/03/2005 08:05:00      0.524     1.715     0.264     0.043
   08/03/2005 08:10:00      0.669     1.872     0.294     0.051
   08/03/2005 08:15:00      0.669     1.865     0.295     0.051
   08/03/2005 08:20:00      0.579     1.775     0.276     0.046
   08/03/2005 08:25:00      0.454     1.642     0.247     0.039
   08/03/2005 08:30:00      0.354     1.512     0.220     0.033
   08/03/2005 08:35:00      0.299     1.426     0.204     0.030
   08/03/2005 08:40:00      0.295     1.432     0.202     0.029
   08/03/2005 08:45:00      0.272     1.401     0.194     0.027
   08/03/2005 08:50:00      0.234     1.343     0.181     0.025
   08/03/2005 08:55:00      0.198     1.263     0.168     0.022
   08/03/2005 09:00:00      0.173     1.207     0.157     0.020
   08/03/2005 09:05:00      0.167     1.191     0.155     0.020
   08/03/2005 09:10:00      0.203     1.275     0.169     0.022
   08/03/2005 09:15:00      0.262     1.407     0.189     0.026
   08/03/2005 09:20:00      0.252     1.387     0.186     0.026
   08/03/2005 09:25:00      0.214     1.310     0.173     0.023
   08/03/2005 09:30:00      0.177     1.224     0.158     0.020
   08/03/2005 09:35:00      0.147     1.151     0.145     0.018
   08/03/2005 09:40:00      0.129     1.102     0.138     0.017
   08/03/2005 09:45:00      0.141     1.135     0.143     0.018
   08/03/2005 09:50:00      0.168     1.214     0.154     0.020
   08/03/2005 09:55:00      0.198     1.279     0.166     0.022
   08/03/2005 10:00:00      0.262     1.402     0.189     0.026
   08/03/2005 10:05:00      0.333     1.517     0.211     0.031
   08/03/2005 10:10:00      0.353     1.539     0.217     0.032
   08/03/2005 10:15:00      0.341     1.515     0.214     0.032
   08/03/2005 10:20:00      0.325     1.490     0.210     0.031
   08/03/2005 10:25:00      0.295     1.445     0.200     0.029
   08/03/2005 10:30:00      0.252     1.373     0.187     0.026
   08/03/2005 10:35:00      0.218     1.313     0.175     0.024
   08/03/2005 10:40:00      0.192     1.255     0.165     0.022
   08/03/2005 10:45:00      0.175     1.217     0.157     0.020
   08/03/2005 10:50:00      0.160     1.185     0.151     0.019
   08/03/2005 10:55:00      0.151     1.164     0.147     0.018
   08/03/2005 11:00:00      0.147     1.157     0.145     0.018
   08/03/2005 11:05:00      0.142     1.145     0.143     0.018
   08/03/2005 11:10:00      0.142     1.147     0.142     0.018
  
  
  <<< Link C21 >>>
  ----------------------------------------------------------------
                             Flow  Velocity     Depth  Capacity/
  Date        Time            CMS     m/sec    meters   Setting 
  ----------------------------------------------------------------
   08/03/2005 07:10:00      0.000     0.000     0.000     0.000
   08/03/2005 07:15:00      0.000     0.000     0.003     0.000
   08/03/2005 07:20:00      0.009     1.450     0.029     0.008
   08/03/2005 07:25:00      0.077     2.296     0.087     0.043
   08/03/2005 07:30:00      0.123     1.754     0.144     0.089
   08/03/2005 07:35:00      0.168     1.680     0.185     0.128
   08/03/2005 07:40:00      0.174     1.580     0.198     0.140
   08/03/2005 07:45:00      0.172     1.571     0.197     0.139
   08/03/2005 07:50:00      0.175     1.618     0.196     0.138
   08/03/2005 07:55:00      0.185     1.677     0.198     0.140
   08/03/2005 08:00:00      0.182     1.646     0.199     0.141
   08/03/2005 08:05:00      0.252     1.987     0.219     0.162
   08/03/2005 08:10:00      0.263     1.868     0.235     0.179
   08/03/2005 08:15:00      0.238     1.743     0.230     0.174
   08/03/2005 08:20:00      0.189     1.571     0.210     0.153
   08/03/2005 08:25:00      0.148     1.449     0.187     0.130
   08/03/2005 08:30:00      0.120     1.383     0.168     0.111
   08/03/2005 08:35:00      0.125     1.521     0.162     0.105
   08/03/2005 08:40:00      0.114     1.435     0.158     0.102
   08/03/2005 08:45:00      0.097     1.317     0.150     0.094
   08/03/2005 08:50:00      0.080     1.224     0.138     0.084
   08/03/2005 08:55:00      0.071     1.197     0.128     0.075
   08/03/2005 09:00:00      0.066     1.203     0.122     0.070
   08/03/2005 09:05:00      0.080     1.391     0.126     0.073
   08/03/2005 09:10:00      0.109     1.595     0.142     0.087
   08/03/2005 09:15:00      0.100     1.363     0.149     0.094
   08/03/2005 09:20:00      0.083     1.212     0.142     0.087
   08/03/2005 09:25:00      0.069     1.138     0.131     0.077
   08/03/2005 09:30:00      0.058     1.092     0.120     0.068
   08/03/2005 09:35:00      0.050     1.046     0.110     0.060
   08/03/2005 09:40:00      0.057     1.217     0.110     0.060
   08/03/2005 09:45:00      0.070     1.348     0.117     0.066
   08/03/2005 09:50:00      0.074     1.320     0.124     0.072
   08/03/2005 09:55:00      0.098     1.497     0.138     0.083
   08/03/2005 10:00:00      0.126     1.591     0.157     0.101
   08/03/2005 10:05:00      0.134     1.521     0.169     0.112
   08/03/2005 10:10:00      0.129     1.454     0.170     0.113
   08/03/2005 10:15:00      0.127     1.453     0.168     0.111
   08/03/2005 10:20:00      0.118     1.409     0.163     0.106
   08/03/2005 10:25:00      0.101     1.309     0.154     0.098
   08/03/2005 10:30:00      0.087     1.256     0.144     0.088
   08/03/2005 10:35:00      0.077     1.223     0.134     0.080
   08/03/2005 10:40:00      0.071     1.216     0.128     0.075
   08/03/2005 10:45:00      0.065     1.187     0.122     0.070
   08/03/2005 10:50:00      0.061     1.176     0.118     0.066
   08/03/2005 10:55:00      0.060     1.191     0.116     0.065
   08/03/2005 11:00:00      0.057     1.152     0.113     0.063
   08/03/2005 11:05:00      0.058     1.181     0.113     0.062
   08/03/2005 11:10:00      0.055     1.143     0.112     0.061
  
  
  <<< Link C23 >>>
  ----------------------------------------------------------------
                             Flow  Velocity     Depth  Capacity/
  Date        Time            CMS     m/sec    meters   Setting 
  ----------------------------------------------------------------
   08/03/2005 07:10:00      0.068     1.002     0.090     0.007
   08/03/2005 07:15:00      0.059     1.002     0.082     0.006
   08/03/2005 07:20:00      0.045     0.986     0.070     0.004
   08/03/2005 07:25:00      0.053     0.992     0.077     0.005
   08/03/2005 07:30:00      0.286     1.237     0.205     0.023
   08/03/2005 07:35:00      1.143     1.907     0.391     0.059
   08/03/2005 07:40:00      1.925     2.277     0.495     0.083
   08/03/2005 07:45:00      2.143     2.383     0.517     0.088
   08/03/2005 07:50:00      2.094     2.369     0.511     0.087
   08/03/2005 07:55:00      2.086     2.362     0.511     0.087
   08/03/2005 08:00:00      2.151     2.383     0.518     0.089
   08/03/2005 08:05:00      2.241     2.402     0.530     0.092
   08/03/2005 08:10:00      2.799     2.551     0.593     0.108
   08/03/2005 08:15:00      3.087     2.653     0.618     0.114
   08/03/2005 08:20:00      2.809     2.581     0.590     0.107
   08/03/2005 08:25:00      2.311     2.435     0.536     0.093
   08/03/2005 08:30:00      1.838     2.269     0.481     0.080
   08/03/2005 08:35:00      1.518     2.151     0.438     0.069
   08/03/2005 08:40:00      1.423     2.111     0.424     0.066
   08/03/2005 08:45:00      1.348     2.072     0.414     0.064
   08/03/2005 08:50:00      1.198     1.995     0.391     0.059
   08/03/2005 08:55:00      1.027     1.917     0.362     0.053
   08/03/2005 09:00:00      0.894     1.839     0.339     0.048
   08/03/2005 09:05:00      0.820     1.790     0.325     0.045
   08/03/2005 09:10:00      0.880     1.818     0.338     0.048
   08/03/2005 09:15:00      1.109     1.940     0.378     0.056
   08/03/2005 09:20:00      1.206     1.998     0.393     0.059
   08/03/2005 09:25:00      1.081     1.943     0.372     0.055
   08/03/2005 09:30:00      0.918     1.853     0.343     0.049
   08/03/2005 09:35:00      0.773     1.755     0.317     0.043
   08/03/2005 09:40:00      0.667     1.674     0.297     0.039
   08/03/2005 09:45:00      0.654     1.662     0.294     0.039
   08/03/2005 09:50:00      0.736     1.717     0.311     0.042
   08/03/2005 09:55:00      0.850     1.798     0.332     0.046
   08/03/2005 10:00:00      1.057     1.913     0.370     0.054
   08/03/2005 10:05:00      1.376     2.067     0.420     0.065
   08/03/2005 10:10:00      1.581     2.171     0.447     0.072
   08/03/2005 10:15:00      1.588     2.181     0.447     0.071
   08/03/2005 10:20:00      1.532     2.161     0.439     0.070
   08/03/2005 10:25:00      1.430     2.112     0.425     0.067
   08/03/2005 10:30:00      1.267     2.030     0.402     0.061
   08/03/2005 10:35:00      1.100     1.952     0.375     0.055
   08/03/2005 10:40:00      0.973     1.895     0.352     0.050
   08/03/2005 10:45:00      0.875     1.831     0.335     0.047
   08/03/2005 10:50:00      0.801     1.780     0.321     0.044
   08/03/2005 10:55:00      0.747     1.736     0.312     0.042
   08/03/2005 11:00:00      0.716     1.709     0.307     0.041
   08/03/2005 11:05:00      0.691     1.690     0.302     0.040
   08/03/2005 11:10:00      0.679     1.683     0.299     0.040
  
  
  <<< Link C24 >>>
  ----------------------------------------------------------------
                             Flow  Velocity     Depth  Capacity/
  Date        Time            CMS     m/sec    meters   Setting 
  ----------------------------------------------------------------
   08/03/2005 07:10:00      0.000     0.000     0.000     0.000
   08/03/2005 07:15:00      0.000     0.000     0.003     0.000
   08/03/2005 07:20:00      0.007     0.825     0.032     0.008
   08/03/2005 07:25:00      0.067     1.380     0.109     0.051
   08/03/2005 07:30:00      0.122     1.429     0.159     0.090
   08/03/2005 07:35:00      0.167     1.595     0.184     0.110
   08/03/2005 07:40:00      0.177     1.629     0.189     0.114
   08/03/2005 07:45:00      0.175     1.656     0.185     0.111
   08/03/2005 07:50:00      0.179     1.692     0.185     0.111
   08/03/2005 07:55:00      0.189     1.732     0.189     0.115
   08/03/2005 08:00:00      0.188     1.726     0.189     0.115
   08/03/2005 08:05:00      0.253     1.921     0.216     0.139
   08/03/2005 08:10:00      0.270     1.912     0.227     0.149
   08/03/2005 08:15:00      0.247     1.866     0.216     0.139
   08/03/2005 08:20:00      0.199     1.755     0.194     0.119
   08/03/2005 08:25:00      0.156     1.651     0.171     0.099
   08/03/2005 08:30:00      0.127     1.568     0.154     0.085
   08/03/2005 08:35:00      0.129     1.603     0.154     0.085
   08/03/2005 08:40:00      0.121     1.540     0.151     0.082
   08/03/2005 08:45:00      0.103     1.452     0.140     0.074
   08/03/2005 08:50:00      0.085     1.376     0.128     0.065
   08/03/2005 08:55:00      0.075     1.330     0.120     0.059
   08/03/2005 09:00:00      0.069     1.309     0.115     0.056
   08/03/2005 09:05:00      0.081     1.395     0.123     0.061
   08/03/2005 09:10:00      0.111     1.513     0.144     0.077
   08/03/2005 09:15:00      0.106     1.428     0.145     0.078
   08/03/2005 09:20:00      0.087     1.347     0.132     0.068
   08/03/2005 09:25:00      0.073     1.286     0.120     0.060
   08/03/2005 09:30:00      0.062     1.235     0.110     0.052
   08/03/2005 09:35:00      0.053     1.184     0.102     0.047
   08/03/2005 09:40:00      0.058     1.258     0.105     0.049
   08/03/2005 09:45:00      0.071     1.328     0.116     0.057
   08/03/2005 09:50:00      0.077     1.324     0.123     0.061
   08/03/2005 09:55:00      0.099     1.439     0.137     0.072
   08/03/2005 10:00:00      0.127     1.534     0.157     0.087
   08/03/2005 10:05:00      0.137     1.548     0.164     0.093
   08/03/2005 10:10:00      0.134     1.537     0.162     0.091
   08/03/2005 10:15:00      0.131     1.541     0.159     0.089
   08/03/2005 10:20:00      0.122     1.515     0.154     0.085
   08/03/2005 10:25:00      0.106     1.444     0.144     0.077
   08/03/2005 10:30:00      0.091     1.392     0.133     0.069
   08/03/2005 10:35:00      0.081     1.350     0.125     0.063
   08/03/2005 10:40:00      0.074     1.323     0.120     0.059
   08/03/2005 10:45:00      0.068     1.288     0.115     0.056
   08/03/2005 10:50:00      0.064     1.267     0.112     0.053
   08/03/2005 10:55:00      0.063     1.264     0.110     0.052
   08/03/2005 11:00:00      0.060     1.234     0.108     0.051
   08/03/2005 11:05:00      0.060     1.240     0.108     0.051
   08/03/2005 11:10:00      0.058     1.217     0.107     0.050
  
  
  <<< Link C22 >>>
  ----------------------------------------------------------------
                             Flow  Velocity     Depth  Capacity/
  Date        Time            CMS     m/sec    meters   Setting 
  ----------------------------------------------------------------
   08/03/2005 07:10:00      0.000     0.000     0.036     0.007
   08/03/2005 07:15:00      0.000     0.002     0.029     0.005
   08/03/2005 07:20:00      0.004     0.352     0.040     0.008
   08/03/2005 07:25:00      0.059     1.451     0.089     0.027
   08/03/2005 07:30:00      0.124     1.534     0.141     0.053
   08/03/2005 07:35:00      0.169     1.462     0.180     0.075
   08/03/2005 07:40:00      0.182     1.404     0.195     0.084
   08/03/2005 07:45:00      0.182     1.400     0.195     0.084
   08/03/2005 07:50:00      0.187     1.446     0.194     0.084
   08/03/2005 07:55:00      0.198     1.502     0.197     0.086
   08/03/2005 08:00:00      0.198     1.492     0.198     0.086
   08/03/2005 08:05:00      0.263     1.741     0.216     0.098
   08/03/2005 08:10:00      0.284     1.687     0.233     0.109
   08/03/2005 08:15:00      0.262     1.593     0.229     0.107
   08/03/2005 08:20:00      0.214     1.469     0.211     0.095
   08/03/2005 08:25:00      0.170     1.375     0.188     0.080
   08/03/2005 08:30:00      0.139     1.319     0.169     0.068
   08/03/2005 08:35:00      0.140     1.402     0.162     0.065
   08/03/2005 08:40:00      0.131     1.358     0.158     0.063
   08/03/2005 08:45:00      0.112     1.261     0.150     0.058
   08/03/2005 08:50:00      0.094     1.187     0.139     0.051
   08/03/2005 08:55:00      0.082     1.152     0.129     0.046
   08/03/2005 09:00:00      0.076     1.148     0.123     0.043
   08/03/2005 09:05:00      0.088     1.272     0.126     0.045
   08/03/2005 09:10:00      0.116     1.437     0.141     0.053
   08/03/2005 09:15:00      0.113     1.299     0.148     0.057
   08/03/2005 09:20:00      0.095     1.160     0.142     0.053
   08/03/2005 09:25:00      0.080     1.090     0.131     0.047
   08/03/2005 09:30:00      0.068     1.050     0.121     0.042
   08/03/2005 09:35:00      0.058     1.016     0.111     0.037
   08/03/2005 09:40:00      0.063     1.116     0.111     0.037
   08/03/2005 09:45:00      0.076     1.228     0.117     0.040
   08/03/2005 09:50:00      0.082     1.221     0.124     0.044
   08/03/2005 09:55:00      0.104     1.340     0.137     0.050
   08/03/2005 10:00:00      0.133     1.432     0.155     0.060
   08/03/2005 10:05:00      0.145     1.390     0.167     0.068
   08/03/2005 10:10:00      0.142     1.334     0.170     0.069
   08/03/2005 10:15:00      0.139     1.330     0.168     0.068
   08/03/2005 10:20:00      0.131     1.300     0.163     0.065
   08/03/2005 10:25:00      0.114     1.226     0.154     0.060
   08/03/2005 10:30:00      0.099     1.184     0.144     0.054
   08/03/2005 10:35:00      0.088     1.158     0.135     0.049
   08/03/2005 10:40:00      0.081     1.146     0.128     0.046
   08/03/2005 10:45:00      0.074     1.121     0.123     0.043
   08/03/2005 10:50:00      0.070     1.109     0.119     0.041
   08/03/2005 10:55:00      0.068     1.116     0.116     0.040
   08/03/2005 11:00:00      0.065     1.093     0.114     0.039
   08/03/2005 11:05:00      0.065     1.103     0.113     0.038
   08/03/2005 11:10:00      0.063     1.084     0.112     0.038
  

  Analysis begun on:  Wed Mar 27 16:53:30 2019
  Analysis ended on:  Wed Mar 27 16:53:30 2019
  Total elapsed time: < 1 sec