
  EPA STORM WATER MANAGEMENT MODEL - VERSION 5.1 (Build 5.1.012)
  --------------------------------------------------------------

  
  *************
  Element Count
  *************
  Number of rain gages ...... 1
  Number of subcatchments ... 15
  Number of nodes ........... 25
  Number of links ........... 24
  Number of pollutants ...... 0
  Number of land uses ....... 0
  
  
  ****************
  Raingage Summary
  ****************
                                                      Data       Recording
  Name                 Data Source                    Type       Interval 
  ------------------------------------------------------------------------
  1                    20050803                       VOLUME       5 min.
  
  
  ********************
  Subcatchment Summary
  ********************
  Name                       Area     Width   %Imperv    %Slope Rain Gage            Outlet              
  -----------------------------------------------------------------------------------------------------------
  S1                         2.21    400.00     80.00    0.0500 1                    J1                  
  S2                         7.25    400.00     50.00    0.0500 1                    J0                  
  S3                         1.53    400.00     30.00    0.0500 1                    J4                  
  S4                         6.18    400.00     20.00    0.0500 1                    J8                  
  S5                         9.28    400.00     20.00    0.0500 1                    J7                  
  S6                         6.98    400.00     60.00    0.0500 1                    J5                  
  S7                         3.28    400.00     40.00    0.0500 1                    J25                 
  S8                        10.68    400.00     70.00    0.0500 1                    J11                 
  S9                        16.43    400.00     30.00    0.0500 1                    J14                 
  S10                        2.73    400.00     40.00    0.0500 1                    J9                  
  S11                        9.27    700.00     40.00    0.0500 1                    J10                 
  S12                       10.58    400.00     60.00    0.0500 1                    J17                 
  S13                       10.08    500.00     60.00    0.0500 1                    J24                 
  S14                       11.53    400.00     40.00    0.0500 1                    J15                 
  S15                        8.92    400.00     50.00    0.0500 1                    J23                 
  
  
  ************
  Node Summary
  ************
                                           Invert      Max.    Ponded    External
  Name                 Type                 Elev.     Depth      Area    Inflow  
  -------------------------------------------------------------------------------
  J0                   JUNCTION             30.99      4.00       0.0
  J1                   JUNCTION             28.99      4.00       0.0
  J2                   JUNCTION             25.99      4.00       0.0
  J3                   JUNCTION             30.99      4.00       0.0
  J4                   JUNCTION             33.99      4.00       0.0
  J5                   JUNCTION             28.99      4.00       0.0
  J6                   JUNCTION             23.79      4.00       0.0
  J7                   JUNCTION             28.39      4.00       0.0
  J8                   JUNCTION             29.99      4.00       0.0
  J9                   JUNCTION             28.69      4.00       0.0
  J10                  JUNCTION             25.99      4.00       0.0
  J11                  JUNCTION             25.69      4.00       0.0
  J12                  JUNCTION             22.79      4.00       0.0
  J13                  JUNCTION             25.29      4.00       0.0
  J14                  JUNCTION             24.59      4.00       0.0
  J15                  JUNCTION             24.19      4.00       0.0
  J16                  JUNCTION             23.39      4.00       0.0
  J17                  JUNCTION             22.09      4.00       0.0
  J18                  JUNCTION             16.00      4.00       0.0
  J20                  JUNCTION             17.70      4.00       0.0
  J21                  JUNCTION             19.00      4.00       0.0
  J23                  JUNCTION             22.29      4.00       0.0
  J24                  JUNCTION             20.89      4.00       0.0
  J25                  JUNCTION             30.19      4.00       0.0
  J19                  OUTFALL              15.50      3.60       0.0
  
  
  ************
  Link Summary
  ************
  Name             From Node        To Node          Type            Length    %Slope Roughness
  ---------------------------------------------------------------------------------------------
  C0               J0               J2               CONDUIT          214.0    2.3371    0.0110
  C1               J1               J2               CONDUIT          152.0    1.9741    0.0110
  C2               J3               J2               CONDUIT          306.0    1.6342    0.0110
  C3               J4               J3               CONDUIT          128.0    2.3444    0.0110
  C4               J2               J6               CONDUIT          293.0    0.7509    0.0110
  C5               J5               J6               CONDUIT          246.0    2.1143    0.0110
  C6               J25              J11              CONDUIT          289.0    1.5573    0.0110
  C7               J6               J12              CONDUIT          335.0    0.2985    0.0110
  C8               J7               J6               CONDUIT          187.0    2.4606    0.0110
  C9               J8               J9               CONDUIT          119.0    1.0925    0.0110
  C10              J9               J16              CONDUIT          325.0    1.6310    0.0110
  C11              J10              J11              CONDUIT          227.0    0.1322    0.0110
  C12              J12              J18              CONDUIT          401.0    1.6935    0.0110
  C13              J17              J18              CONDUIT          267.0    2.2815    0.0110
  C14              J11              J13              CONDUIT          113.0    0.3540    0.0110
  C16              J13              J17              CONDUIT          409.0    0.7824    0.0110
  C17              J24              J20              CONDUIT          329.0    0.9697    0.0110
  C18              J20              J18              CONDUIT          215.0    0.7907    0.0110
  C19              J16              J21              CONDUIT          437.0    1.0046    0.0110
  C20              J21              J20              CONDUIT          295.0    0.4407    0.0110
  C21              J23              J21              CONDUIT          204.0    1.6130    0.0110
  C23              J18              J19              CONDUIT          161.0    0.3106    0.0110
  C24              J15              J16              CONDUIT          197.0    0.4061    0.0110
  C22              J14              J12              CONDUIT          280.0    0.6429    0.0110
  
  
  *********************
  Cross Section Summary
  *********************
                                        Full     Full     Hyd.     Max.   No. of     Full
  Conduit          Shape               Depth     Area     Rad.    Width  Barrels     Flow
  ---------------------------------------------------------------------------------------
  C0               CIRCULAR             0.70     0.38     0.17     0.70        1     1.67
  C1               CIRCULAR             0.60     0.28     0.15     0.60        1     1.02
  C2               CIRCULAR             0.80     0.50     0.20     0.80        1     2.00
  C3               CIRCULAR             0.60     0.28     0.15     0.60        1     1.11
  C4               CIRCULAR             1.20     1.13     0.30     1.20        1     3.99
  C5               CIRCULAR             0.70     0.38     0.17     0.70        1     1.59
  C6               CIRCULAR             0.80     0.50     0.20     0.80        1     1.95
  C7               CIRCULAR             2.40     4.52     0.60     2.40        1    15.99
  C8               CIRCULAR             0.70     0.38     0.17     0.70        1     1.72
  C9               CIRCULAR             0.70     0.38     0.17     0.70        1     1.14
  C10              CIRCULAR             1.00     0.79     0.25     1.00        1     3.62
  C11              CIRCULAR             1.50     1.77     0.38     1.50        1     3.04
  C12              CIRCULAR             3.00     7.07     0.75     3.00        1    69.04
  C13              CIRCULAR             1.50     1.77     0.38     1.50        1    12.62
  C14              CIRCULAR             1.50     1.77     0.38     1.50        1     4.97
  C16              CIRCULAR             1.35     1.43     0.34     1.35        1     5.58
  C17              CIRCULAR             0.80     0.50     0.20     0.80        1     1.54
  C18              CIRCULAR             3.00     7.07     0.75     3.00        1    47.18
  C19              CIRCULAR             3.00     7.07     0.75     3.00        1    53.18
  C20              CIRCULAR             3.00     7.07     0.75     3.00        1    35.22
  C21              CIRCULAR             1.00     0.79     0.25     1.00        1     3.60
  C23              CIRCULAR             3.60    10.18     0.90     3.60        1    48.08
  C24              CIRCULAR             1.10     0.95     0.28     1.10        1     2.33
  C22              CIRCULAR             1.40     1.54     0.35     1.40        1     5.57
  
  
  
  *********************************************************
  NOTE: The summary statistics displayed in this report are
  based on results found at every computational time step,  
  not just on results from each reporting time step.
  *********************************************************
  
  ****************
  Analysis Options
  ****************
  Flow Units ............... CMS
  Process Models:
    Rainfall/Runoff ........ YES
    RDII ................... NO
    Snowmelt ............... NO
    Groundwater ............ NO
    Flow Routing ........... YES
    Ponding Allowed ........ NO
    Water Quality .......... NO
  Infiltration Method ...... HORTON
  Flow Routing Method ...... DYNWAVE
  Starting Date ............ 08/03/2005 07:05:00
  Ending Date .............. 08/03/2005 11:30:00
  Antecedent Dry Days ...... 0.0
  Report Time Step ......... 00:05:00
  Wet Time Step ............ 00:05:00
  Dry Time Step ............ 01:00:00
  Routing Time Step ........ 30.00 sec
  Variable Time Step ....... YES
  Maximum Trials ........... 8
  Number of Threads ........ 1
  Head Tolerance ........... 0.005000 m
  
  
  **************************        Volume         Depth
  Runoff Quantity Continuity     hectare-m            mm
  **************************     ---------       -------
  Total Precipitation ......         4.724        40.399
  Evaporation Loss .........         0.000         0.000
  Infiltration Loss ........         0.192         1.641
  Surface Runoff ...........         2.892        24.726
  Final Storage ............         1.664        14.229
  Continuity Error (%) .....        -0.489
  
  
  **************************        Volume        Volume
  Flow Routing Continuity        hectare-m      10^6 ltr
  **************************     ---------     ---------
  Dry Weather Inflow .......         0.000         0.000
  Wet Weather Inflow .......         2.871        28.709
  Groundwater Inflow .......         0.000         0.000
  RDII Inflow ..............         0.000         0.000
  External Inflow ..........         0.000         0.000
  External Outflow .........         2.798        27.984
  Flooding Loss ............         0.000         0.000
  Evaporation Loss .........         0.000         0.000
  Exfiltration Loss ........         0.000         0.000
  Initial Stored Volume ....         0.021         0.207
  Final Stored Volume ......         0.089         0.890
  Continuity Error (%) .....         0.144
  
  
  *************************
  Highest Continuity Errors
  *************************
  Node J21 (1.24%)
  
  
  ***************************
  Time-Step Critical Elements
  ***************************
  Link C14 (91.28%)
  
  
  ********************************
  Highest Flow Instability Indexes
  ********************************
  Link C3 (4)
  Link C9 (4)
  Link C8 (4)
  Link C5 (4)
  Link C4 (3)
  
  
  *************************
  Routing Time Step Summary
  *************************
  Minimum Time Step           :    15.86 sec
  Average Time Step           :    26.15 sec
  Maximum Time Step           :    30.00 sec
  Percent in Steady State     :    -0.00
  Average Iterations per Step :     2.00
  Percent Not Converging      :     0.00
  
  
  ***************************
  Subcatchment Runoff Summary
  ***************************
  
  --------------------------------------------------------------------------------------------------------
                            Total      Total      Total      Total      Total       Total     Peak  Runoff
                           Precip      Runon       Evap      Infil     Runoff      Runoff   Runoff   Coeff
  Subcatchment                 mm         mm         mm         mm         mm    10^6 ltr      CMS
  --------------------------------------------------------------------------------------------------------
  S1                        40.40       0.00       0.00       0.60      36.53        0.81     0.15   0.904
  S2                        40.40       0.00       0.00       1.50      27.17        1.97     0.27   0.673
  S3                        40.40       0.00       0.00       2.11      30.67        0.47     0.07   0.759
  S4                        40.40       0.00       0.00       2.41      19.54        1.21     0.14   0.484
  S5                        40.40       0.00       0.00       2.41      16.74        1.55     0.18   0.414
  S6                        40.40       0.00       0.00       1.20      29.82        2.08     0.29   0.738
  S7                        40.40       0.00       0.00       1.80      28.99        0.95     0.14   0.718
  S8                        40.40       0.00       0.00       0.90      29.94        3.20     0.43   0.741
  S9                        40.40       0.00       0.00       2.11      16.64        2.73     0.33   0.412
  S10                       40.40       0.00       0.00       1.80      29.91        0.82     0.12   0.740
  S11                       40.40       0.00       0.00       1.80      26.32        2.44     0.33   0.652
  S12                       40.40       0.00       0.00       1.20      27.67        2.93     0.39   0.685
  S13                       40.40       0.00       0.00       1.20      29.10        2.93     0.40   0.720
  S14                       40.40       0.00       0.00       1.80      21.69        2.50     0.32   0.537
  S15                       40.40       0.00       0.00       1.50      26.02        2.32     0.31   0.644
  
  
  ******************
  Node Depth Summary
  ******************
  
  ---------------------------------------------------------------------------------
                                 Average  Maximum  Maximum  Time of Max    Reported
                                   Depth    Depth      HGL   Occurrence   Max Depth
  Node                 Type       Meters   Meters   Meters  days hr:min      Meters
  ---------------------------------------------------------------------------------
  J0                   JUNCTION     0.13     0.19    31.18     0  01:00        0.19
  J1                   JUNCTION     0.09     0.16    29.15     0  01:00        0.15
  J2                   JUNCTION     0.18     0.28    26.27     0  01:04        0.28
  J3                   JUNCTION     0.07     0.10    31.09     0  01:02        0.10
  J4                   JUNCTION     0.07     0.11    34.10     0  01:00        0.10
  J5                   JUNCTION     0.13     0.20    29.19     0  01:00        0.20
  J6                   JUNCTION     0.28     0.41    24.20     0  01:06        0.40
  J7                   JUNCTION     0.11     0.15    28.54     0  01:00        0.15
  J8                   JUNCTION     0.12     0.16    30.15     0  01:00        0.16
  J9                   JUNCTION     0.13     0.18    28.87     0  01:01        0.18
  J10                  JUNCTION     0.22     0.33    26.32     0  01:02        0.33
  J11                  JUNCTION     0.28     0.43    26.12     0  01:05        0.43
  J12                  JUNCTION     0.19     0.28    23.07     0  01:08        0.28
  J13                  JUNCTION     0.24     0.37    25.66     0  01:06        0.37
  J14                  JUNCTION     0.16     0.23    24.82     0  01:05        0.23
  J15                  JUNCTION     0.19     0.28    24.47     0  01:01        0.28
  J16                  JUNCTION     0.15     0.22    23.61     0  01:05        0.22
  J17                  JUNCTION     0.21     0.32    22.41     0  01:06        0.32
  J18                  JUNCTION     0.46     0.68    16.68     0  01:09        0.68
  J20                  JUNCTION     0.23     0.33    18.03     0  01:08        0.33
  J21                  JUNCTION     0.22     0.32    19.32     0  01:07        0.32
  J23                  JUNCTION     0.13     0.20    22.49     0  01:05        0.20
  J24                  JUNCTION     0.18     0.28    21.17     0  01:05        0.28
  J25                  JUNCTION     0.09     0.14    30.33     0  01:01        0.14
  J19                  OUTFALL      0.46     0.68    16.18     0  01:09        0.68
  
  
  *******************
  Node Inflow Summary
  *******************
  
  -------------------------------------------------------------------------------------------------
                                  Maximum  Maximum                  Lateral       Total        Flow
                                  Lateral    Total  Time of Max      Inflow      Inflow     Balance
                                   Inflow   Inflow   Occurrence      Volume      Volume       Error
  Node                 Type           CMS      CMS  days hr:min    10^6 ltr    10^6 ltr     Percent
  -------------------------------------------------------------------------------------------------
  J0                   JUNCTION     0.267    0.267     0  01:00        1.96        1.96      -0.230
  J1                   JUNCTION     0.151    0.151     0  01:00       0.804       0.803       0.065
  J2                   JUNCTION     0.000    0.485     0  01:01           0        3.23       0.389
  J3                   JUNCTION     0.000    0.074     0  01:00           0       0.467       0.662
  J4                   JUNCTION     0.074    0.074     0  01:00       0.467       0.467       0.023
  J5                   JUNCTION     0.292    0.292     0  01:05        2.07        2.07       0.198
  J6                   JUNCTION     0.000    0.937     0  01:04           0        6.82       0.814
  J7                   JUNCTION     0.175    0.175     0  01:00        1.54        1.54       0.214
  J8                   JUNCTION     0.137    0.137     0  01:00         1.2         1.2       0.174
  J9                   JUNCTION     0.122    0.258     0  01:00       0.813        2.01       0.420
  J10                  JUNCTION     0.329    0.329     0  01:00        2.43        2.42       0.505
  J11                  JUNCTION     0.426    0.876     0  01:03        3.18        6.53       0.729
  J12                  JUNCTION     0.000    1.260     0  01:06           0        9.46       0.371
  J13                  JUNCTION     0.000    0.874     0  01:05           0        6.48       0.530
  J14                  JUNCTION     0.332    0.332     0  01:05        2.71        2.71       0.429
  J15                  JUNCTION     0.316    0.316     0  01:05        2.48        2.48       0.318
  J16                  JUNCTION     0.000    0.570     0  01:01           0        4.47       0.923
  J17                  JUNCTION     0.387    1.257     0  01:05        2.91        9.36       0.406
  J18                  JUNCTION     0.000    3.745     0  01:08           0        28.2       0.885
  J20                  JUNCTION     0.000    1.249     0  01:06           0        9.56       0.719
  J21                  JUNCTION     0.000    0.867     0  01:05           0        6.73       1.255
  J23                  JUNCTION     0.307    0.307     0  01:05        2.31         2.3       0.148
  J24                  JUNCTION     0.404    0.404     0  01:05        2.92        2.91       0.268
  J25                  JUNCTION     0.137    0.137     0  01:00       0.946       0.945       0.280
  J19                  OUTFALL      0.000    3.742     0  01:09           0          28       0.000
  
  
  **********************
  Node Surcharge Summary
  **********************
  
  No nodes were surcharged.
  
  
  *********************
  Node Flooding Summary
  *********************
  
  No nodes were flooded.
  
  
  ***********************
  Outfall Loading Summary
  ***********************
  
  -----------------------------------------------------------
                         Flow       Avg       Max       Total
                         Freq      Flow      Flow      Volume
  Outfall Node           Pcnt       CMS       CMS    10^6 ltr
  -----------------------------------------------------------
  J19                  100.00     1.822     3.742      27.984
  -----------------------------------------------------------
  System               100.00     1.822     3.742      27.984
  
  
  ********************
  Link Flow Summary
  ********************
  
  -----------------------------------------------------------------------------
                                 Maximum  Time of Max   Maximum    Max/    Max/
                                  |Flow|   Occurrence   |Veloc|    Full    Full
  Link                 Type          CMS  days hr:min     m/sec    Flow   Depth
  -----------------------------------------------------------------------------
  C0                   CONDUIT     0.267     0  01:00      4.43    0.16    0.33
  C1                   CONDUIT     0.151     0  01:00      1.95    0.15    0.36
  C2                   CONDUIT     0.071     0  01:02      0.89    0.04    0.24
  C3                   CONDUIT     0.074     0  01:00      2.30    0.07    0.17
  C4                   CONDUIT     0.475     0  01:05      1.79    0.12    0.29
  C5                   CONDUIT     0.292     0  01:01      1.95    0.18    0.43
  C6                   CONDUIT     0.135     0  01:01      1.08    0.07    0.35
  C7                   CONDUIT     0.932     0  01:06      2.35    0.06    0.14
  C8                   CONDUIT     0.176     0  01:00      1.81    0.10    0.40
  C9                   CONDUIT     0.137     0  01:00      1.89    0.12    0.24
  C10                  CONDUIT     0.254     0  01:01      2.46    0.07    0.20
  C11                  CONDUIT     0.323     0  01:03      0.94    0.11    0.25
  C12                  CONDUIT     1.252     0  01:08      2.59    0.02    0.16
  C13                  CONDUIT     1.255     0  01:06      2.49    0.10    0.33
  C14                  CONDUIT     0.874     0  01:05      2.34    0.18    0.26
  C16                  CONDUIT     0.874     0  01:06      3.04    0.16    0.25
  C17                  CONDUIT     0.403     0  01:05      2.40    0.26    0.38
  C18                  CONDUIT     1.243     0  01:08      1.57    0.03    0.17
  C19                  CONDUIT     0.560     0  01:05      1.81    0.01    0.09
  C20                  CONDUIT     0.853     0  01:07      2.03    0.02    0.11
  C21                  CONDUIT     0.307     0  01:05      2.34    0.09    0.26
  C23                  CONDUIT     3.742     0  01:09      3.66    0.08    0.19
  C24                  CONDUIT     0.316     0  01:01      2.00    0.14    0.23
  C22                  CONDUIT     0.331     0  01:05      1.82    0.06    0.18
  
  
  ***************************
  Flow Classification Summary
  ***************************
  
  -------------------------------------------------------------------------------------
                      Adjusted    ---------- Fraction of Time in Flow Class ---------- 
                       /Actual         Up    Down  Sub   Sup   Up    Down  Norm  Inlet 
  Conduit               Length    Dry  Dry   Dry   Crit  Crit  Crit  Crit  Ltd   Ctrl  
  -------------------------------------------------------------------------------------
  C0                      1.00   0.00  0.00  0.00  0.04  0.96  0.00  0.00  1.00  0.00
  C1                      1.00   0.00  0.02  0.00  0.54  0.44  0.00  0.00  0.98  0.00
  C2                      1.00   0.00  0.02  0.00  0.98  0.00  0.00  0.00  0.98  0.00
  C3                      1.00   0.02  0.00  0.00  0.01  0.97  0.00  0.00  0.80  0.00
  C4                      1.00   0.00  0.00  0.00  0.35  0.65  0.00  0.00  1.00  0.00
  C5                      1.00   0.00  0.02  0.00  0.06  0.91  0.00  0.00  0.98  0.00
  C6                      1.00   0.02  0.00  0.00  0.95  0.03  0.00  0.00  0.98  0.00
  C7                      1.00   0.00  0.00  0.00  0.00  1.00  0.00  0.00  0.00  0.00
  C8                      1.00   0.00  0.02  0.00  0.61  0.37  0.00  0.00  0.98  0.00
  C9                      1.00   0.02  0.00  0.00  0.02  0.96  0.00  0.00  0.78  0.00
  C10                     1.00   0.02  0.00  0.00  0.01  0.97  0.00  0.00  0.93  0.00
  C11                     1.00   0.02  0.00  0.00  0.98  0.00  0.00  0.00  0.92  0.00
  C12                     1.00   0.00  0.00  0.00  0.89  0.11  0.00  0.00  0.99  0.00
  C13                     1.00   0.00  0.02  0.00  0.04  0.94  0.00  0.00  0.98  0.00
  C14                     1.00   0.02  0.00  0.00  0.03  0.95  0.00  0.00  0.41  0.00
  C16                     1.00   0.02  0.00  0.00  0.05  0.93  0.00  0.00  0.04  0.00
  C17                     1.00   0.02  0.00  0.00  0.01  0.97  0.00  0.00  0.90  0.00
  C18                     1.00   0.00  0.02  0.00  0.97  0.01  0.00  0.00  0.98  0.00
  C19                     1.00   0.02  0.00  0.00  0.03  0.95  0.00  0.00  0.97  0.00
  C20                     1.00   0.02  0.00  0.00  0.05  0.93  0.00  0.00  0.75  0.00
  C21                     1.00   0.02  0.00  0.00  0.01  0.97  0.00  0.00  0.94  0.00
  C23                     1.00   0.00  0.00  0.00  0.01  0.99  0.00  0.00  0.41  0.00
  C24                     1.00   0.02  0.00  0.00  0.02  0.96  0.00  0.00  0.00  0.00
  C22                     1.00   0.00  0.02  0.00  0.03  0.94  0.00  0.00  0.94  0.00
  
  
  *************************
  Conduit Surcharge Summary
  *************************
  
  No conduits were surcharged.
  
  
  ********************
  Subcatchment Results
  ********************
  
  <<< Subcatchment S1 >>>
  ---------------------------------------------------
  Date        Time        Precip.    Losses    Runoff
                            mm/hr     mm/hr       CMS
  ---------------------------------------------------
   08/03/2005 07:10:00      3.600     0.546    0.0000
   08/03/2005 07:15:00     30.000     0.000    0.0002
   08/03/2005 07:20:00     45.600     0.000    0.0138
   08/03/2005 07:25:00     24.000     0.000    0.0802
   08/03/2005 07:30:00     27.600     0.000    0.0985
   08/03/2005 07:35:00     13.200     0.000    0.1195
   08/03/2005 07:40:00     13.200     0.000    0.1020
   08/03/2005 07:45:00     15.600     0.000    0.0924
   08/03/2005 07:50:00     18.000     0.000    0.0919
   08/03/2005 07:55:00     13.200     0.000    0.0968
   08/03/2005 08:00:00     42.000     0.000    0.0903
   08/03/2005 08:05:00     20.400     0.000    0.1505
   08/03/2005 08:10:00     12.000     0.000    0.1386
   08/03/2005 08:15:00      1.200     0.227    0.1134
   08/03/2005 08:20:00      0.000     0.000    0.0774
   08/03/2005 08:25:00      1.200     0.227    0.0547
   08/03/2005 08:30:00     14.400     0.000    0.0424
   08/03/2005 08:35:00      3.600     0.503    0.0551
   08/03/2005 08:40:00      1.200     0.225    0.0459
   08/03/2005 08:45:00      0.000     0.000    0.0363
   08/03/2005 08:50:00      2.400     0.390    0.0282
   08/03/2005 08:55:00      3.600     0.454    0.0252
   08/03/2005 09:00:00     14.400     0.000    0.0244
   08/03/2005 09:05:00     20.400     0.000    0.0395
   08/03/2005 09:10:00      1.200     0.222    0.0631
   08/03/2005 09:15:00      0.000     0.000    0.0468
   08/03/2005 09:20:00      0.000     0.000    0.0349
   08/03/2005 09:25:00      0.000     0.000    0.0270
   08/03/2005 09:30:00      0.000     0.000    0.0215
   08/03/2005 09:35:00     10.800     0.000    0.0175
   08/03/2005 09:40:00     10.800     0.000    0.0276
   08/03/2005 09:45:00      7.200     0.000    0.0368
   08/03/2005 09:50:00     19.200     0.000    0.0386
   08/03/2005 09:55:00     19.200     0.000    0.0600
   08/03/2005 10:00:00     12.000     0.000    0.0771
   08/03/2005 10:05:00      8.400     0.000    0.0753
   08/03/2005 10:10:00      9.600     0.000    0.0674
   08/03/2005 10:15:00      6.000     0.141    0.0646
   08/03/2005 10:20:00      1.200     0.221    0.0562
   08/03/2005 10:25:00      2.400     0.367    0.0428
   08/03/2005 10:30:00      2.400     0.361    0.0356
   08/03/2005 10:35:00      3.600     0.377    0.0306
   08/03/2005 10:40:00      2.400     0.354    0.0285
   08/03/2005 10:45:00      3.600     0.372    0.0253
   08/03/2005 10:50:00      4.800     0.246    0.0245
   08/03/2005 10:55:00      2.400     0.354    0.0254
   08/03/2005 11:00:00      6.000     0.000    0.0229
   08/03/2005 11:05:00      2.400     0.354    0.0259
   08/03/2005 11:10:00      2.400     0.354    0.0233
   08/03/2005 11:15:00      1.200     0.218    0.0213
   08/03/2005 11:20:00      2.400     0.354    0.0184
   08/03/2005 11:25:00      2.400     0.354    0.0175
  
  
  <<< Subcatchment S2 >>>
  ---------------------------------------------------
  Date        Time        Precip.    Losses    Runoff
                            mm/hr     mm/hr       CMS
  ---------------------------------------------------
   08/03/2005 07:10:00      3.600     1.365    0.0000
   08/03/2005 07:15:00     30.000     0.000    0.0000
   08/03/2005 07:20:00     45.600     0.000    0.0144
   08/03/2005 07:25:00     24.000     0.000    0.0914
   08/03/2005 07:30:00     27.600     0.000    0.1295
   08/03/2005 07:35:00     13.200     0.000    0.1736
   08/03/2005 07:40:00     13.200     0.000    0.1682
   08/03/2005 07:45:00     15.600     0.000    0.1652
   08/03/2005 07:50:00     18.000     0.000    0.1706
   08/03/2005 07:55:00     13.200     0.000    0.1826
   08/03/2005 08:00:00     42.000     0.000    0.1788
   08/03/2005 08:05:00     20.400     0.000    0.2668
   08/03/2005 08:10:00     12.000     0.000    0.2656
   08/03/2005 08:15:00      1.200     0.568    0.2393
   08/03/2005 08:20:00      0.000     0.000    0.1894
   08/03/2005 08:25:00      1.200     0.567    0.1528
   08/03/2005 08:30:00     14.400     0.000    0.1297
   08/03/2005 08:35:00      3.600     1.257    0.1459
   08/03/2005 08:40:00      1.200     0.562    0.1307
   08/03/2005 08:45:00      0.000     0.000    0.1139
   08/03/2005 08:50:00      2.400     0.974    0.0989
   08/03/2005 08:55:00      3.600     1.135    0.0917
   08/03/2005 09:00:00     14.400     0.000    0.0882
   08/03/2005 09:05:00     20.400     0.000    0.1094
   08/03/2005 09:10:00      1.200     0.554    0.1441
   08/03/2005 09:15:00      0.000     0.000    0.1246
   08/03/2005 09:20:00      0.000     0.000    0.1076
   08/03/2005 09:25:00      0.000     0.000    0.0947
   08/03/2005 09:30:00      0.000     0.000    0.0845
   08/03/2005 09:35:00     10.800     0.000    0.0763
   08/03/2005 09:40:00     10.800     0.000    0.0906
   08/03/2005 09:45:00      7.200     0.000    0.1038
   08/03/2005 09:50:00     19.200     0.000    0.1074
   08/03/2005 09:55:00     19.200     0.000    0.1394
   08/03/2005 10:00:00     12.000     0.000    0.1684
   08/03/2005 10:05:00      8.400     0.000    0.1730
   08/03/2005 10:10:00      9.600     0.000    0.1672
   08/03/2005 10:15:00      6.000     0.353    0.1663
   08/03/2005 10:20:00      1.200     0.552    0.1560
   08/03/2005 10:25:00      2.400     0.918    0.1361
   08/03/2005 10:30:00      2.400     0.903    0.1235
   08/03/2005 10:35:00      3.600     0.943    0.1136
   08/03/2005 10:40:00      2.400     0.885    0.1081
   08/03/2005 10:45:00      3.600     0.931    0.1010
   08/03/2005 10:50:00      4.800     0.615    0.0975
   08/03/2005 10:55:00      2.400     0.885    0.0973
   08/03/2005 11:00:00      6.000     0.000    0.0918
   08/03/2005 11:05:00      2.400     0.885    0.0951
   08/03/2005 11:10:00      2.400     0.885    0.0899
   08/03/2005 11:15:00      1.200     0.544    0.0855
   08/03/2005 11:20:00      2.400     0.885    0.0797
   08/03/2005 11:25:00      2.400     0.885    0.0767
  
  
  <<< Subcatchment S3 >>>
  ---------------------------------------------------
  Date        Time        Precip.    Losses    Runoff
                            mm/hr     mm/hr       CMS
  ---------------------------------------------------
   08/03/2005 07:10:00      3.600     1.911    0.0000
   08/03/2005 07:15:00     30.000     0.000    0.0002
   08/03/2005 07:20:00     45.600     0.000    0.0111
   08/03/2005 07:25:00     24.000     0.000    0.0467
   08/03/2005 07:30:00     27.600     0.000    0.0399
   08/03/2005 07:35:00     13.200     0.000    0.0452
   08/03/2005 07:40:00     13.200     0.000    0.0345
   08/03/2005 07:45:00     15.600     0.000    0.0328
   08/03/2005 07:50:00     18.000     0.000    0.0360
   08/03/2005 07:55:00     13.200     0.000    0.0412
   08/03/2005 08:00:00     42.000     0.000    0.0396
   08/03/2005 08:05:00     20.400     0.000    0.0743
   08/03/2005 08:10:00     12.000     0.000    0.0642
   08/03/2005 08:15:00      1.200     0.796    0.0539
   08/03/2005 08:20:00      0.000     0.000    0.0395
   08/03/2005 08:25:00      1.200     0.793    0.0322
   08/03/2005 08:30:00     14.400     0.000    0.0283
   08/03/2005 08:35:00      3.600     1.759    0.0375
   08/03/2005 08:40:00      1.200     0.786    0.0320
   08/03/2005 08:45:00      0.000     0.000    0.0271
   08/03/2005 08:50:00      2.400     1.364    0.0233
   08/03/2005 08:55:00      3.600     1.589    0.0218
   08/03/2005 09:00:00     14.400     0.000    0.0213
   08/03/2005 09:05:00     20.400     0.000    0.0308
   08/03/2005 09:10:00      1.200     0.776    0.0436
   08/03/2005 09:15:00      0.000     0.000    0.0304
   08/03/2005 09:20:00      0.000     0.000    0.0242
   08/03/2005 09:25:00      0.000     0.000    0.0207
   08/03/2005 09:30:00      0.000     0.000    0.0183
   08/03/2005 09:35:00     10.800     0.000    0.0165
   08/03/2005 09:40:00     10.800     0.000    0.0230
   08/03/2005 09:45:00      7.200     0.000    0.0281
   08/03/2005 09:50:00     19.200     0.000    0.0278
   08/03/2005 09:55:00     19.200     0.000    0.0399
   08/03/2005 10:00:00     12.000     0.000    0.0469
   08/03/2005 10:05:00      8.400     0.000    0.0432
   08/03/2005 10:10:00      9.600     0.000    0.0388
   08/03/2005 10:15:00      6.000     0.494    0.0384
   08/03/2005 10:20:00      1.200     0.772    0.0346
   08/03/2005 10:25:00      2.400     1.285    0.0283
   08/03/2005 10:30:00      2.400     1.265    0.0253
   08/03/2005 10:35:00      3.600     1.321    0.0231
   08/03/2005 10:40:00      2.400     1.238    0.0223
   08/03/2005 10:45:00      3.600     1.303    0.0206
   08/03/2005 10:50:00      4.800     0.861    0.0201
   08/03/2005 10:55:00      2.400     1.238    0.0206
   08/03/2005 11:00:00      6.000     0.000    0.0187
   08/03/2005 11:05:00      2.400     1.238    0.0205
   08/03/2005 11:10:00      2.400     1.238    0.0184
   08/03/2005 11:15:00      1.200     0.762    0.0169
   08/03/2005 11:20:00      2.400     1.238    0.0151
   08/03/2005 11:25:00      2.400     1.238    0.0145
  
  
  <<< Subcatchment S4 >>>
  ---------------------------------------------------
  Date        Time        Precip.    Losses    Runoff
                            mm/hr     mm/hr       CMS
  ---------------------------------------------------
   08/03/2005 07:10:00      3.600     2.184    0.0000
   08/03/2005 07:15:00     30.000     0.000    0.0000
   08/03/2005 07:20:00     45.600     0.000    0.0133
   08/03/2005 07:25:00     24.000     0.000    0.0727
   08/03/2005 07:30:00     27.600     0.000    0.0819
   08/03/2005 07:35:00     13.200     0.000    0.0962
   08/03/2005 07:40:00     13.200     0.000    0.0794
   08/03/2005 07:45:00     15.600     0.000    0.0728
   08/03/2005 07:50:00     18.000     0.000    0.0750
   08/03/2005 07:55:00     13.200     0.000    0.0823
   08/03/2005 08:00:00     42.000     0.000    0.0798
   08/03/2005 08:05:00     20.400     0.000    0.1368
   08/03/2005 08:10:00     12.000     0.000    0.1290
   08/03/2005 08:15:00      1.200     0.909    0.1118
   08/03/2005 08:20:00      0.000     0.000    0.0853
   08/03/2005 08:25:00      1.200     0.907    0.0701
   08/03/2005 08:30:00     14.400     0.000    0.0625
   08/03/2005 08:35:00      3.600     2.011    0.0773
   08/03/2005 08:40:00      1.200     0.899    0.0709
   08/03/2005 08:45:00      0.000     0.000    0.0637
   08/03/2005 08:50:00      2.400     1.559    0.0576
   08/03/2005 08:55:00      3.600     1.816    0.0556
   08/03/2005 09:00:00     14.400     0.000    0.0554
   08/03/2005 09:05:00     20.400     0.000    0.0710
   08/03/2005 09:10:00      1.200     0.887    0.0949
   08/03/2005 09:15:00      0.000     0.000    0.0796
   08/03/2005 09:20:00      0.000     0.000    0.0692
   08/03/2005 09:25:00      0.000     0.000    0.0626
   08/03/2005 09:30:00      0.000     0.000    0.0579
   08/03/2005 09:35:00     10.800     0.000    0.0544
   08/03/2005 09:40:00     10.800     0.000    0.0650
   08/03/2005 09:45:00      7.200     0.000    0.0746
   08/03/2005 09:50:00     19.200     0.000    0.0768
   08/03/2005 09:55:00     19.200     0.000    0.0987
   08/03/2005 10:00:00     12.000     0.000    0.1159
   08/03/2005 10:05:00      8.400     0.000    0.1150
   08/03/2005 10:10:00      9.600     0.000    0.1092
   08/03/2005 10:15:00      6.000     0.564    0.1086
   08/03/2005 10:20:00      1.200     0.883    0.1024
   08/03/2005 10:25:00      2.400     1.469    0.0910
   08/03/2005 10:30:00      2.400     1.445    0.0850
   08/03/2005 10:35:00      3.600     1.509    0.0806
   08/03/2005 10:40:00      2.400     1.415    0.0787
   08/03/2005 10:45:00      3.600     1.489    0.0755
   08/03/2005 10:50:00      4.800     0.985    0.0744
   08/03/2005 10:55:00      2.400     1.415    0.0752
   08/03/2005 11:00:00      6.000     0.000    0.0722
   08/03/2005 11:05:00      2.400     1.415    0.0753
   08/03/2005 11:10:00      2.400     1.415    0.0720
   08/03/2005 11:15:00      1.200     0.871    0.0694
   08/03/2005 11:20:00      2.400     1.415    0.0659
   08/03/2005 11:25:00      2.400     1.415    0.0643
  
  
  <<< Subcatchment S5 >>>
  ---------------------------------------------------
  Date        Time        Precip.    Losses    Runoff
                            mm/hr     mm/hr       CMS
  ---------------------------------------------------
   08/03/2005 07:10:00      3.600     2.184    0.0000
   08/03/2005 07:15:00     30.000     0.000    0.0000
   08/03/2005 07:20:00     45.600     0.000    0.0138
   08/03/2005 07:25:00     24.000     0.000    0.0812
   08/03/2005 07:30:00     27.600     0.000    0.1013
   08/03/2005 07:35:00     13.200     0.000    0.1249
   08/03/2005 07:40:00     13.200     0.000    0.1094
   08/03/2005 07:45:00     15.600     0.000    0.1017
   08/03/2005 07:50:00     18.000     0.000    0.1036
   08/03/2005 07:55:00     13.200     0.000    0.1116
   08/03/2005 08:00:00     42.000     0.000    0.1080
   08/03/2005 08:05:00     20.400     0.000    0.1755
   08/03/2005 08:10:00     12.000     0.000    0.1694
   08/03/2005 08:15:00      1.200     0.909    0.1486
   08/03/2005 08:20:00      0.000     0.000    0.1143
   08/03/2005 08:25:00      1.200     0.907    0.0928
   08/03/2005 08:30:00     14.400     0.000    0.0812
   08/03/2005 08:35:00      3.600     2.011    0.0975
   08/03/2005 08:40:00      1.200     0.899    0.0892
   08/03/2005 08:45:00      0.000     0.000    0.0798
   08/03/2005 08:50:00      2.400     1.559    0.0718
   08/03/2005 08:55:00      3.600     1.816    0.0689
   08/03/2005 09:00:00     14.400     0.000    0.0683
   08/03/2005 09:05:00     20.400     0.000    0.0866
   08/03/2005 09:10:00      1.200     0.887    0.1151
   08/03/2005 09:15:00      0.000     0.000    0.0991
   08/03/2005 09:20:00      0.000     0.000    0.0870
   08/03/2005 09:25:00      0.000     0.000    0.0787
   08/03/2005 09:30:00      0.000     0.000    0.0727
   08/03/2005 09:35:00     10.800     0.000    0.0682
   08/03/2005 09:40:00     10.800     0.000    0.0807
   08/03/2005 09:45:00      7.200     0.000    0.0922
   08/03/2005 09:50:00     19.200     0.000    0.0955
   08/03/2005 09:55:00     19.200     0.000    0.1218
   08/03/2005 10:00:00     12.000     0.000    0.1441
   08/03/2005 10:05:00      8.400     0.000    0.1456
   08/03/2005 10:10:00      9.600     0.000    0.1400
   08/03/2005 10:15:00      6.000     0.564    0.1396
   08/03/2005 10:20:00      1.200     0.883    0.1324
   08/03/2005 10:25:00      2.400     1.469    0.1184
   08/03/2005 10:30:00      2.400     1.445    0.1106
   08/03/2005 10:35:00      3.600     1.509    0.1049
   08/03/2005 10:40:00      2.400     1.415    0.1024
   08/03/2005 10:45:00      3.600     1.489    0.0984
   08/03/2005 10:50:00      4.800     0.985    0.0970
   08/03/2005 10:55:00      2.400     1.415    0.0980
   08/03/2005 11:00:00      6.000     0.000    0.0946
   08/03/2005 11:05:00      2.400     1.415    0.0983
   08/03/2005 11:10:00      2.400     1.415    0.0947
   08/03/2005 11:15:00      1.200     0.871    0.0918
   08/03/2005 11:20:00      2.400     1.415    0.0878
   08/03/2005 11:25:00      2.400     1.415    0.0859
  
  
  <<< Subcatchment S6 >>>
  ---------------------------------------------------
  Date        Time        Precip.    Losses    Runoff
                            mm/hr     mm/hr       CMS
  ---------------------------------------------------
   08/03/2005 07:10:00      3.600     1.092    0.0000
   08/03/2005 07:15:00     30.000     0.000    0.0000
   08/03/2005 07:20:00     45.600     0.000    0.0145
   08/03/2005 07:25:00     24.000     0.000    0.0930
   08/03/2005 07:30:00     27.600     0.000    0.1346
   08/03/2005 07:35:00     13.200     0.000    0.1832
   08/03/2005 07:40:00     13.200     0.000    0.1811
   08/03/2005 07:45:00     15.600     0.000    0.1802
   08/03/2005 07:50:00     18.000     0.000    0.1875
   08/03/2005 07:55:00     13.200     0.000    0.2013
   08/03/2005 08:00:00     42.000     0.000    0.1981
   08/03/2005 08:05:00     20.400     0.000    0.2912
   08/03/2005 08:10:00     12.000     0.000    0.2918
   08/03/2005 08:15:00      1.200     0.455    0.2649
   08/03/2005 08:20:00      0.000     0.000    0.2116
   08/03/2005 08:25:00      1.200     0.453    0.1714
   08/03/2005 08:30:00     14.400     0.000    0.1453
   08/03/2005 08:35:00      3.600     1.005    0.1610
   08/03/2005 08:40:00      1.200     0.449    0.1438
   08/03/2005 08:45:00      0.000     0.000    0.1249
   08/03/2005 08:50:00      2.400     0.779    0.1078
   08/03/2005 08:55:00      3.600     0.908    0.0992
   08/03/2005 09:00:00     14.400     0.000    0.0946
   08/03/2005 09:05:00     20.400     0.000    0.1164
   08/03/2005 09:10:00      1.200     0.443    0.1523
   08/03/2005 09:15:00      0.000     0.000    0.1317
   08/03/2005 09:20:00      0.000     0.000    0.1134
   08/03/2005 09:25:00      0.000     0.000    0.0991
   08/03/2005 09:30:00      0.000     0.000    0.0877
   08/03/2005 09:35:00     10.800     0.000    0.0785
   08/03/2005 09:40:00     10.800     0.000    0.0931
   08/03/2005 09:45:00      7.200     0.000    0.1066
   08/03/2005 09:50:00     19.200     0.000    0.1101
   08/03/2005 09:55:00     19.200     0.000    0.1433
   08/03/2005 10:00:00     12.000     0.000    0.1737
   08/03/2005 10:05:00      8.400     0.000    0.1789
   08/03/2005 10:10:00      9.600     0.000    0.1732
   08/03/2005 10:15:00      6.000     0.282    0.1722
   08/03/2005 10:20:00      1.200     0.441    0.1614
   08/03/2005 10:25:00      2.400     0.734    0.1402
   08/03/2005 10:30:00      2.400     0.723    0.1265
   08/03/2005 10:35:00      3.600     0.755    0.1156
   08/03/2005 10:40:00      2.400     0.708    0.1094
   08/03/2005 10:45:00      3.600     0.744    0.1015
   08/03/2005 10:50:00      4.800     0.492    0.0975
   08/03/2005 10:55:00      2.400     0.708    0.0968
   08/03/2005 11:00:00      6.000     0.000    0.0909
   08/03/2005 11:05:00      2.400     0.708    0.0941
   08/03/2005 11:10:00      2.400     0.708    0.0885
   08/03/2005 11:15:00      1.200     0.435    0.0837
   08/03/2005 11:20:00      2.400     0.708    0.0774
   08/03/2005 11:25:00      2.400     0.708    0.0741
  
  
  <<< Subcatchment S7 >>>
  ---------------------------------------------------
  Date        Time        Precip.    Losses    Runoff
                            mm/hr     mm/hr       CMS
  ---------------------------------------------------
   08/03/2005 07:10:00      3.600     1.638    0.0000
   08/03/2005 07:15:00     30.000     0.000    0.0000
   08/03/2005 07:20:00     45.600     0.000    0.0134
   08/03/2005 07:25:00     24.000     0.000    0.0740
   08/03/2005 07:30:00     27.600     0.000    0.0847
   08/03/2005 07:35:00     13.200     0.000    0.0999
   08/03/2005 07:40:00     13.200     0.000    0.0828
   08/03/2005 07:45:00     15.600     0.000    0.0755
   08/03/2005 07:50:00     18.000     0.000    0.0770
   08/03/2005 07:55:00     13.200     0.000    0.0837
   08/03/2005 08:00:00     42.000     0.000    0.0802
   08/03/2005 08:05:00     20.400     0.000    0.1372
   08/03/2005 08:10:00     12.000     0.000    0.1280
   08/03/2005 08:15:00      1.200     0.682    0.1087
   08/03/2005 08:20:00      0.000     0.000    0.0799
   08/03/2005 08:25:00      1.200     0.680    0.0627
   08/03/2005 08:30:00     14.400     0.000    0.0537
   08/03/2005 08:35:00      3.600     1.508    0.0673
   08/03/2005 08:40:00      1.200     0.674    0.0597
   08/03/2005 08:45:00      0.000     0.000    0.0514
   08/03/2005 08:50:00      2.400     1.169    0.0445
   08/03/2005 08:55:00      3.600     1.362    0.0418
   08/03/2005 09:00:00     14.400     0.000    0.0409
   08/03/2005 09:05:00     20.400     0.000    0.0556
   08/03/2005 09:10:00      1.200     0.665    0.0784
   08/03/2005 09:15:00      0.000     0.000    0.0623
   08/03/2005 09:20:00      0.000     0.000    0.0512
   08/03/2005 09:25:00      0.000     0.000    0.0439
   08/03/2005 09:30:00      0.000     0.000    0.0388
   08/03/2005 09:35:00     10.800     0.000    0.0349
   08/03/2005 09:40:00     10.800     0.000    0.0447
   08/03/2005 09:45:00      7.200     0.000    0.0535
   08/03/2005 09:50:00     19.200     0.000    0.0550
   08/03/2005 09:55:00     19.200     0.000    0.0757
   08/03/2005 10:00:00     12.000     0.000    0.0917
   08/03/2005 10:05:00      8.400     0.000    0.0896
   08/03/2005 10:10:00      9.600     0.000    0.0826
   08/03/2005 10:15:00      6.000     0.423    0.0807
   08/03/2005 10:20:00      1.200     0.662    0.0736
   08/03/2005 10:25:00      2.400     1.101    0.0615
   08/03/2005 10:30:00      2.400     1.084    0.0550
   08/03/2005 10:35:00      3.600     1.132    0.0502
   08/03/2005 10:40:00      2.400     1.061    0.0481
   08/03/2005 10:45:00      3.600     1.117    0.0448
   08/03/2005 10:50:00      4.800     0.738    0.0436
   08/03/2005 10:55:00      2.400     1.061    0.0441
   08/03/2005 11:00:00      6.000     0.000    0.0412
   08/03/2005 11:05:00      2.400     1.061    0.0439
   08/03/2005 11:10:00      2.400     1.061    0.0408
   08/03/2005 11:15:00      1.200     0.653    0.0383
   08/03/2005 11:20:00      2.400     1.061    0.0351
   08/03/2005 11:25:00      2.400     1.061    0.0336
  
  
  <<< Subcatchment S8 >>>
  ---------------------------------------------------
  Date        Time        Precip.    Losses    Runoff
                            mm/hr     mm/hr       CMS
  ---------------------------------------------------
   08/03/2005 07:10:00      3.600     0.819    0.0000
   08/03/2005 07:15:00     30.000     0.000    0.0000
   08/03/2005 07:20:00     45.600     0.000    0.0147
   08/03/2005 07:25:00     24.000     0.000    0.0979
   08/03/2005 07:30:00     27.600     0.000    0.1509
   08/03/2005 07:35:00     13.200     0.000    0.2168
   08/03/2005 07:40:00     13.200     0.000    0.2296
   08/03/2005 07:45:00     15.600     0.000    0.2412
   08/03/2005 07:50:00     18.000     0.000    0.2601
   08/03/2005 07:55:00     13.200     0.000    0.2859
   08/03/2005 08:00:00     42.000     0.000    0.2907
   08/03/2005 08:05:00     20.400     0.000    0.4106
   08/03/2005 08:10:00     12.000     0.000    0.4256
   08/03/2005 08:15:00      1.200     0.341    0.4031
   08/03/2005 08:20:00      0.000     0.000    0.3416
   08/03/2005 08:25:00      1.200     0.340    0.2900
   08/03/2005 08:30:00     14.400     0.000    0.2532
   08/03/2005 08:35:00      3.600     0.754    0.2700
   08/03/2005 08:40:00      1.200     0.337    0.2454
   08/03/2005 08:45:00      0.000     0.000    0.2177
   08/03/2005 08:50:00      2.400     0.584    0.1915
   08/03/2005 08:55:00      3.600     0.681    0.1766
   08/03/2005 09:00:00     14.400     0.000    0.1674
   08/03/2005 09:05:00     20.400     0.000    0.1931
   08/03/2005 09:10:00      1.200     0.333    0.2370
   08/03/2005 09:15:00      0.000     0.000    0.2113
   08/03/2005 09:20:00      0.000     0.000    0.1868
   08/03/2005 09:25:00      0.000     0.000    0.1665
   08/03/2005 09:30:00      0.000     0.000    0.1495
   08/03/2005 09:35:00     10.800     0.000    0.1351
   08/03/2005 09:40:00     10.800     0.000    0.1523
   08/03/2005 09:45:00      7.200     0.000    0.1683
   08/03/2005 09:50:00     19.200     0.000    0.1721
   08/03/2005 09:55:00     19.200     0.000    0.2133
   08/03/2005 10:00:00     12.000     0.000    0.2522
   08/03/2005 10:05:00      8.400     0.000    0.2620
   08/03/2005 10:10:00      9.600     0.000    0.2579
   08/03/2005 10:15:00      6.000     0.212    0.2588
   08/03/2005 10:20:00      1.200     0.331    0.2469
   08/03/2005 10:25:00      2.400     0.551    0.2208
   08/03/2005 10:30:00      2.400     0.542    0.2027
   08/03/2005 10:35:00      3.600     0.566    0.1875
   08/03/2005 10:40:00      2.400     0.531    0.1780
   08/03/2005 10:45:00      3.600     0.558    0.1664
   08/03/2005 10:50:00      4.800     0.369    0.1597
   08/03/2005 10:55:00      2.400     0.531    0.1574
   08/03/2005 11:00:00      6.000     0.000    0.1485
   08/03/2005 11:05:00      2.400     0.531    0.1512
   08/03/2005 11:10:00      2.400     0.531    0.1430
   08/03/2005 11:15:00      1.200     0.327    0.1359
   08/03/2005 11:20:00      2.400     0.531    0.1266
   08/03/2005 11:25:00      2.400     0.531    0.1213
  
  
  <<< Subcatchment S9 >>>
  ---------------------------------------------------
  Date        Time        Precip.    Losses    Runoff
                            mm/hr     mm/hr       CMS
  ---------------------------------------------------
   08/03/2005 07:10:00      3.600     1.911    0.0000
   08/03/2005 07:15:00     30.000     0.000    0.0000
   08/03/2005 07:20:00     45.600     0.000    0.0146
   08/03/2005 07:25:00     24.000     0.000    0.0946
   08/03/2005 07:30:00     27.600     0.000    0.1399
   08/03/2005 07:35:00     13.200     0.000    0.1938
   08/03/2005 07:40:00     13.200     0.000    0.1960
   08/03/2005 07:45:00     15.600     0.000    0.1986
   08/03/2005 07:50:00     18.000     0.000    0.2090
   08/03/2005 07:55:00     13.200     0.000    0.2262
   08/03/2005 08:00:00     42.000     0.000    0.2252
   08/03/2005 08:05:00     20.400     0.000    0.3266
   08/03/2005 08:10:00     12.000     0.000    0.3319
   08/03/2005 08:15:00      1.200     0.796    0.3068
   08/03/2005 08:20:00      0.000     0.000    0.2518
   08/03/2005 08:25:00      1.200     0.793    0.2092
   08/03/2005 08:30:00     14.400     0.000    0.1810
   08/03/2005 08:35:00      3.600     1.759    0.1985
   08/03/2005 08:40:00      1.200     0.786    0.1805
   08/03/2005 08:45:00      0.000     0.000    0.1602
   08/03/2005 08:50:00      2.400     1.364    0.1417
   08/03/2005 08:55:00      3.600     1.589    0.1324
   08/03/2005 09:00:00     14.400     0.000    0.1277
   08/03/2005 09:05:00     20.400     0.000    0.1522
   08/03/2005 09:10:00      1.200     0.776    0.1924
   08/03/2005 09:15:00      0.000     0.000    0.1716
   08/03/2005 09:20:00      0.000     0.000    0.1527
   08/03/2005 09:25:00      0.000     0.000    0.1378
   08/03/2005 09:30:00      0.000     0.000    0.1258
   08/03/2005 09:35:00     10.800     0.000    0.1161
   08/03/2005 09:40:00     10.800     0.000    0.1329
   08/03/2005 09:45:00      7.200     0.000    0.1488
   08/03/2005 09:50:00     19.200     0.000    0.1538
   08/03/2005 09:55:00     19.200     0.000    0.1915
   08/03/2005 10:00:00     12.000     0.000    0.2268
   08/03/2005 10:05:00      8.400     0.000    0.2355
   08/03/2005 10:10:00      9.600     0.000    0.2321
   08/03/2005 10:15:00      6.000     0.494    0.2336
   08/03/2005 10:20:00      1.200     0.772    0.2241
   08/03/2005 10:25:00      2.400     1.285    0.2026
   08/03/2005 10:30:00      2.400     1.265    0.1887
   08/03/2005 10:35:00      3.600     1.321    0.1774
   08/03/2005 10:40:00      2.400     1.238    0.1713
   08/03/2005 10:45:00      3.600     1.303    0.1631
   08/03/2005 10:50:00      4.800     0.861    0.1592
   08/03/2005 10:55:00      2.400     1.238    0.1591
   08/03/2005 11:00:00      6.000     0.000    0.1530
   08/03/2005 11:05:00      2.400     1.238    0.1572
   08/03/2005 11:10:00      2.400     1.238    0.1514
   08/03/2005 11:15:00      1.200     0.762    0.1465
   08/03/2005 11:20:00      2.400     1.238    0.1397
   08/03/2005 11:25:00      2.400     1.238    0.1363
  
  
  <<< Subcatchment S10 >>>
  ---------------------------------------------------
  Date        Time        Precip.    Losses    Runoff
                            mm/hr     mm/hr       CMS
  ---------------------------------------------------
   08/03/2005 07:10:00      3.600     1.638    0.0000
   08/03/2005 07:15:00     30.000     0.000    0.0000
   08/03/2005 07:20:00     45.600     0.000    0.0131
   08/03/2005 07:25:00     24.000     0.000    0.0698
   08/03/2005 07:30:00     27.600     0.000    0.0759
   08/03/2005 07:35:00     13.200     0.000    0.0878
   08/03/2005 07:40:00     13.200     0.000    0.0710
   08/03/2005 07:45:00     15.600     0.000    0.0645
   08/03/2005 07:50:00     18.000     0.000    0.0663
   08/03/2005 07:55:00     13.200     0.000    0.0727
   08/03/2005 08:00:00     42.000     0.000    0.0696
   08/03/2005 08:05:00     20.400     0.000    0.1220
   08/03/2005 08:10:00     12.000     0.000    0.1121
   08/03/2005 08:15:00      1.200     0.682    0.0943
   08/03/2005 08:20:00      0.000     0.000    0.0685
   08/03/2005 08:25:00      1.200     0.680    0.0537
   08/03/2005 08:30:00     14.400     0.000    0.0461
   08/03/2005 08:35:00      3.600     1.508    0.0588
   08/03/2005 08:40:00      1.200     0.674    0.0518
   08/03/2005 08:45:00      0.000     0.000    0.0443
   08/03/2005 08:50:00      2.400     1.169    0.0381
   08/03/2005 08:55:00      3.600     1.362    0.0358
   08/03/2005 09:00:00     14.400     0.000    0.0350
   08/03/2005 09:05:00     20.400     0.000    0.0486
   08/03/2005 09:10:00      1.200     0.665    0.0693
   08/03/2005 09:15:00      0.000     0.000    0.0536
   08/03/2005 09:20:00      0.000     0.000    0.0434
   08/03/2005 09:25:00      0.000     0.000    0.0369
   08/03/2005 09:30:00      0.000     0.000    0.0324
   08/03/2005 09:35:00     10.800     0.000    0.0291
   08/03/2005 09:40:00     10.800     0.000    0.0381
   08/03/2005 09:45:00      7.200     0.000    0.0462
   08/03/2005 09:50:00     19.200     0.000    0.0473
   08/03/2005 09:55:00     19.200     0.000    0.0661
   08/03/2005 10:00:00     12.000     0.000    0.0800
   08/03/2005 10:05:00      8.400     0.000    0.0771
   08/03/2005 10:10:00      9.600     0.000    0.0703
   08/03/2005 10:15:00      6.000     0.423    0.0686
   08/03/2005 10:20:00      1.200     0.662    0.0621
   08/03/2005 10:25:00      2.400     1.101    0.0513
   08/03/2005 10:30:00      2.400     1.084    0.0457
   08/03/2005 10:35:00      3.600     1.132    0.0416
   08/03/2005 10:40:00      2.400     1.061    0.0398
   08/03/2005 10:45:00      3.600     1.117    0.0369
   08/03/2005 10:50:00      4.800     0.738    0.0359
   08/03/2005 10:55:00      2.400     1.061    0.0366
   08/03/2005 11:00:00      6.000     0.000    0.0340
   08/03/2005 11:05:00      2.400     1.061    0.0365
   08/03/2005 11:10:00      2.400     1.061    0.0337
   08/03/2005 11:15:00      1.200     0.653    0.0314
   08/03/2005 11:20:00      2.400     1.061    0.0285
   08/03/2005 11:25:00      2.400     1.061    0.0273
  
  
  <<< Subcatchment S11 >>>
  ---------------------------------------------------
  Date        Time        Precip.    Losses    Runoff
                            mm/hr     mm/hr       CMS
  ---------------------------------------------------
   08/03/2005 07:10:00      3.600     1.638    0.0000
   08/03/2005 07:15:00     30.000     0.000    0.0000
   08/03/2005 07:20:00     45.600     0.000    0.0244
   08/03/2005 07:25:00     24.000     0.000    0.1463
   08/03/2005 07:30:00     27.600     0.000    0.1880
   08/03/2005 07:35:00     13.200     0.000    0.2355
   08/03/2005 07:40:00     13.200     0.000    0.2101
   08/03/2005 07:45:00     15.600     0.000    0.1966
   08/03/2005 07:50:00     18.000     0.000    0.1996
   08/03/2005 07:55:00     13.200     0.000    0.2135
   08/03/2005 08:00:00     42.000     0.000    0.2058
   08/03/2005 08:05:00     20.400     0.000    0.3287
   08/03/2005 08:10:00     12.000     0.000    0.3175
   08/03/2005 08:15:00      1.200     0.682    0.2772
   08/03/2005 08:20:00      0.000     0.000    0.2105
   08/03/2005 08:25:00      1.200     0.680    0.1669
   08/03/2005 08:30:00     14.400     0.000    0.1421
   08/03/2005 08:35:00      3.600     1.508    0.1692
   08/03/2005 08:40:00      1.200     0.674    0.1516
   08/03/2005 08:45:00      0.000     0.000    0.1321
   08/03/2005 08:50:00      2.400     1.169    0.1152
   08/03/2005 08:55:00      3.600     1.362    0.1082
   08/03/2005 09:00:00     14.400     0.000    0.1056
   08/03/2005 09:05:00     20.400     0.000    0.1370
   08/03/2005 09:10:00      1.200     0.665    0.1867
   08/03/2005 09:15:00      0.000     0.000    0.1568
   08/03/2005 09:20:00      0.000     0.000    0.1333
   08/03/2005 09:25:00      0.000     0.000    0.1167
   08/03/2005 09:30:00      0.000     0.000    0.1043
   08/03/2005 09:35:00     10.800     0.000    0.0948
   08/03/2005 09:40:00     10.800     0.000    0.1158
   08/03/2005 09:45:00      7.200     0.000    0.1350
   08/03/2005 09:50:00     19.200     0.000    0.1397
   08/03/2005 09:55:00     19.200     0.000    0.1852
   08/03/2005 10:00:00     12.000     0.000    0.2237
   08/03/2005 10:05:00      8.400     0.000    0.2252
   08/03/2005 10:10:00      9.600     0.000    0.2134
   08/03/2005 10:15:00      6.000     0.423    0.2105
   08/03/2005 10:20:00      1.200     0.662    0.1953
   08/03/2005 10:25:00      2.400     1.101    0.1680
   08/03/2005 10:30:00      2.400     1.084    0.1521
   08/03/2005 10:35:00      3.600     1.132    0.1400
   08/03/2005 10:40:00      2.400     1.061    0.1341
   08/03/2005 10:45:00      3.600     1.117    0.1257
   08/03/2005 10:50:00      4.800     0.738    0.1222
   08/03/2005 10:55:00      2.400     1.061    0.1229
   08/03/2005 11:00:00      6.000     0.000    0.1161
   08/03/2005 11:05:00      2.400     1.061    0.1216
   08/03/2005 11:10:00      2.400     1.061    0.1147
   08/03/2005 11:15:00      1.200     0.653    0.1090
   08/03/2005 11:20:00      2.400     1.061    0.1014
   08/03/2005 11:25:00      2.400     1.061    0.0978
  
  
  <<< Subcatchment S12 >>>
  ---------------------------------------------------
  Date        Time        Precip.    Losses    Runoff
                            mm/hr     mm/hr       CMS
  ---------------------------------------------------
   08/03/2005 07:10:00      3.600     1.092    0.0000
   08/03/2005 07:15:00     30.000     0.000    0.0000
   08/03/2005 07:20:00     45.600     0.000    0.0147
   08/03/2005 07:25:00     24.000     0.000    0.0968
   08/03/2005 07:30:00     27.600     0.000    0.1470
   08/03/2005 07:35:00     13.200     0.000    0.2084
   08/03/2005 07:40:00     13.200     0.000    0.2170
   08/03/2005 07:45:00     15.600     0.000    0.2248
   08/03/2005 07:50:00     18.000     0.000    0.2401
   08/03/2005 07:55:00     13.200     0.000    0.2621
   08/03/2005 08:00:00     42.000     0.000    0.2642
   08/03/2005 08:05:00     20.400     0.000    0.3764
   08/03/2005 08:10:00     12.000     0.000    0.3870
   08/03/2005 08:15:00      1.200     0.455    0.3627
   08/03/2005 08:20:00      0.000     0.000    0.3031
   08/03/2005 08:25:00      1.200     0.453    0.2545
   08/03/2005 08:30:00     14.400     0.000    0.2208
   08/03/2005 08:35:00      3.600     1.005    0.2375
   08/03/2005 08:40:00      1.200     0.449    0.2153
   08/03/2005 08:45:00      0.000     0.000    0.1904
   08/03/2005 08:50:00      2.400     0.779    0.1671
   08/03/2005 08:55:00      3.600     0.908    0.1544
   08/03/2005 09:00:00     14.400     0.000    0.1469
   08/03/2005 09:05:00     20.400     0.000    0.1719
   08/03/2005 09:10:00      1.200     0.443    0.2139
   08/03/2005 09:15:00      0.000     0.000    0.1901
   08/03/2005 09:20:00      0.000     0.000    0.1678
   08/03/2005 09:25:00      0.000     0.000    0.1495
   08/03/2005 09:30:00      0.000     0.000    0.1345
   08/03/2005 09:35:00     10.800     0.000    0.1219
   08/03/2005 09:40:00     10.800     0.000    0.1387
   08/03/2005 09:45:00      7.200     0.000    0.1544
   08/03/2005 09:50:00     19.200     0.000    0.1585
   08/03/2005 09:55:00     19.200     0.000    0.1979
   08/03/2005 10:00:00     12.000     0.000    0.2349
   08/03/2005 10:05:00      8.400     0.000    0.2439
   08/03/2005 10:10:00      9.600     0.000    0.2398
   08/03/2005 10:15:00      6.000     0.282    0.2406
   08/03/2005 10:20:00      1.200     0.441    0.2293
   08/03/2005 10:25:00      2.400     0.734    0.2048
   08/03/2005 10:30:00      2.400     0.723    0.1881
   08/03/2005 10:35:00      3.600     0.755    0.1742
   08/03/2005 10:40:00      2.400     0.708    0.1658
   08/03/2005 10:45:00      3.600     0.744    0.1554
   08/03/2005 10:50:00      4.800     0.492    0.1496
   08/03/2005 10:55:00      2.400     0.708    0.1480
   08/03/2005 11:00:00      6.000     0.000    0.1400
   08/03/2005 11:05:00      2.400     0.708    0.1431
   08/03/2005 11:10:00      2.400     0.708    0.1358
   08/03/2005 11:15:00      1.200     0.435    0.1293
   08/03/2005 11:20:00      2.400     0.708    0.1210
   08/03/2005 11:25:00      2.400     0.708    0.1163
  
  
  <<< Subcatchment S13 >>>
  ---------------------------------------------------
  Date        Time        Precip.    Losses    Runoff
                            mm/hr     mm/hr       CMS
  ---------------------------------------------------
   08/03/2005 07:10:00      3.600     1.092    0.0000
   08/03/2005 07:15:00     30.000     0.000    0.0000
   08/03/2005 07:20:00     45.600     0.000    0.0182
   08/03/2005 07:25:00     24.000     0.000    0.1181
   08/03/2005 07:30:00     27.600     0.000    0.1740
   08/03/2005 07:35:00     13.200     0.000    0.2406
   08/03/2005 07:40:00     13.200     0.000    0.2424
   08/03/2005 07:45:00     15.600     0.000    0.2448
   08/03/2005 07:50:00     18.000     0.000    0.2569
   08/03/2005 07:55:00     13.200     0.000    0.2772
   08/03/2005 08:00:00     42.000     0.000    0.2750
   08/03/2005 08:05:00     20.400     0.000    0.3992
   08/03/2005 08:10:00     12.000     0.000    0.4036
   08/03/2005 08:15:00      1.200     0.455    0.3705
   08/03/2005 08:20:00      0.000     0.000    0.3007
   08/03/2005 08:25:00      1.200     0.453    0.2466
   08/03/2005 08:30:00     14.400     0.000    0.2106
   08/03/2005 08:35:00      3.600     1.005    0.2306
   08/03/2005 08:40:00      1.200     0.449    0.2070
   08/03/2005 08:45:00      0.000     0.000    0.1809
   08/03/2005 08:50:00      2.400     0.779    0.1570
   08/03/2005 08:55:00      3.600     0.908    0.1446
   08/03/2005 09:00:00     14.400     0.000    0.1377
   08/03/2005 09:05:00     20.400     0.000    0.1664
   08/03/2005 09:10:00      1.200     0.443    0.2138
   08/03/2005 09:15:00      0.000     0.000    0.1868
   08/03/2005 09:20:00      0.000     0.000    0.1623
   08/03/2005 09:25:00      0.000     0.000    0.1429
   08/03/2005 09:30:00      0.000     0.000    0.1272
   08/03/2005 09:35:00     10.800     0.000    0.1144
   08/03/2005 09:40:00     10.800     0.000    0.1336
   08/03/2005 09:45:00      7.200     0.000    0.1514
   08/03/2005 09:50:00     19.200     0.000    0.1561
   08/03/2005 09:55:00     19.200     0.000    0.2002
   08/03/2005 10:00:00     12.000     0.000    0.2409
   08/03/2005 10:05:00      8.400     0.000    0.2491
   08/03/2005 10:10:00      9.600     0.000    0.2425
   08/03/2005 10:15:00      6.000     0.282    0.2420
   08/03/2005 10:20:00      1.200     0.441    0.2282
   08/03/2005 10:25:00      2.400     0.734    0.2003
   08/03/2005 10:30:00      2.400     0.723    0.1820
   08/03/2005 10:35:00      3.600     0.755    0.1670
   08/03/2005 10:40:00      2.400     0.708    0.1583
   08/03/2005 10:45:00      3.600     0.744    0.1474
   08/03/2005 10:50:00      4.800     0.492    0.1417
   08/03/2005 10:55:00      2.400     0.708    0.1406
   08/03/2005 11:00:00      6.000     0.000    0.1323
   08/03/2005 11:05:00      2.400     0.708    0.1362
   08/03/2005 11:10:00      2.400     0.708    0.1285
   08/03/2005 11:15:00      1.200     0.435    0.1219
   08/03/2005 11:20:00      2.400     0.708    0.1132
   08/03/2005 11:25:00      2.400     0.708    0.1086
  
  
  <<< Subcatchment S14 >>>
  ---------------------------------------------------
  Date        Time        Precip.    Losses    Runoff
                            mm/hr     mm/hr       CMS
  ---------------------------------------------------
   08/03/2005 07:10:00      3.600     1.638    0.0000
   08/03/2005 07:15:00     30.000     0.000    0.0000
   08/03/2005 07:20:00     45.600     0.000    0.0145
   08/03/2005 07:25:00     24.000     0.000    0.0940
   08/03/2005 07:30:00     27.600     0.000    0.1378
   08/03/2005 07:35:00     13.200     0.000    0.1896
   08/03/2005 07:40:00     13.200     0.000    0.1901
   08/03/2005 07:45:00     15.600     0.000    0.1913
   08/03/2005 07:50:00     18.000     0.000    0.2005
   08/03/2005 07:55:00     13.200     0.000    0.2163
   08/03/2005 08:00:00     42.000     0.000    0.2145
   08/03/2005 08:05:00     20.400     0.000    0.3128
   08/03/2005 08:10:00     12.000     0.000    0.3163
   08/03/2005 08:15:00      1.200     0.682    0.2907
   08/03/2005 08:20:00      0.000     0.000    0.2365
   08/03/2005 08:25:00      1.200     0.680    0.1950
   08/03/2005 08:30:00     14.400     0.000    0.1678
   08/03/2005 08:35:00      3.600     1.508    0.1849
   08/03/2005 08:40:00      1.200     0.674    0.1673
   08/03/2005 08:45:00      0.000     0.000    0.1477
   08/03/2005 08:50:00      2.400     1.169    0.1299
   08/03/2005 08:55:00      3.600     1.362    0.1210
   08/03/2005 09:00:00     14.400     0.000    0.1164
   08/03/2005 09:05:00     20.400     0.000    0.1400
   08/03/2005 09:10:00      1.200     0.665    0.1786
   08/03/2005 09:15:00      0.000     0.000    0.1580
   08/03/2005 09:20:00      0.000     0.000    0.1394
   08/03/2005 09:25:00      0.000     0.000    0.1248
   08/03/2005 09:30:00      0.000     0.000    0.1131
   08/03/2005 09:35:00     10.800     0.000    0.1036
   08/03/2005 09:40:00     10.800     0.000    0.1197
   08/03/2005 09:45:00      7.200     0.000    0.1347
   08/03/2005 09:50:00     19.200     0.000    0.1391
   08/03/2005 09:55:00     19.200     0.000    0.1752
   08/03/2005 10:00:00     12.000     0.000    0.2087
   08/03/2005 10:05:00      8.400     0.000    0.2162
   08/03/2005 10:10:00      9.600     0.000    0.2119
   08/03/2005 10:15:00      6.000     0.423    0.2125
   08/03/2005 10:20:00      1.200     0.662    0.2025
   08/03/2005 10:25:00      2.400     1.101    0.1811
   08/03/2005 10:30:00      2.400     1.084    0.1671
   08/03/2005 10:35:00      3.600     1.132    0.1559
   08/03/2005 10:40:00      2.400     1.061    0.1497
   08/03/2005 10:45:00      3.600     1.117    0.1415
   08/03/2005 10:50:00      4.800     0.738    0.1375
   08/03/2005 10:55:00      2.400     1.061    0.1371
   08/03/2005 11:00:00      6.000     0.000    0.1309
   08/03/2005 11:05:00      2.400     1.061    0.1346
   08/03/2005 11:10:00      2.400     1.061    0.1288
   08/03/2005 11:15:00      1.200     0.653    0.1237
   08/03/2005 11:20:00      2.400     1.061    0.1170
   08/03/2005 11:25:00      2.400     1.061    0.1135
  
  
  <<< Subcatchment S15 >>>
  ---------------------------------------------------
  Date        Time        Precip.    Losses    Runoff
                            mm/hr     mm/hr       CMS
  ---------------------------------------------------
   08/03/2005 07:10:00      3.600     1.365    0.0000
   08/03/2005 07:15:00     30.000     0.000    0.0000
   08/03/2005 07:20:00     45.600     0.000    0.0145
   08/03/2005 07:25:00     24.000     0.000    0.0937
   08/03/2005 07:30:00     27.600     0.000    0.1367
   08/03/2005 07:35:00     13.200     0.000    0.1874
   08/03/2005 07:40:00     13.200     0.000    0.1869
   08/03/2005 07:45:00     15.600     0.000    0.1873
   08/03/2005 07:50:00     18.000     0.000    0.1958
   08/03/2005 07:55:00     13.200     0.000    0.2109
   08/03/2005 08:00:00     42.000     0.000    0.2086
   08/03/2005 08:05:00     20.400     0.000    0.3049
   08/03/2005 08:10:00     12.000     0.000    0.3074
   08/03/2005 08:15:00      1.200     0.568    0.2811
   08/03/2005 08:20:00      0.000     0.000    0.2272
   08/03/2005 08:25:00      1.200     0.567    0.1861
   08/03/2005 08:30:00     14.400     0.000    0.1592
   08/03/2005 08:35:00      3.600     1.257    0.1757
   08/03/2005 08:40:00      1.200     0.562    0.1582
   08/03/2005 08:45:00      0.000     0.000    0.1388
   08/03/2005 08:50:00      2.400     0.974    0.1211
   08/03/2005 08:55:00      3.600     1.135    0.1122
   08/03/2005 09:00:00     14.400     0.000    0.1075
   08/03/2005 09:05:00     20.400     0.000    0.1304
   08/03/2005 09:10:00      1.200     0.554    0.1679
   08/03/2005 09:15:00      0.000     0.000    0.1472
   08/03/2005 09:20:00      0.000     0.000    0.1286
   08/03/2005 09:25:00      0.000     0.000    0.1140
   08/03/2005 09:30:00      0.000     0.000    0.1023
   08/03/2005 09:35:00     10.800     0.000    0.0928
   08/03/2005 09:40:00     10.800     0.000    0.1082
   08/03/2005 09:45:00      7.200     0.000    0.1225
   08/03/2005 09:50:00     19.200     0.000    0.1265
   08/03/2005 09:55:00     19.200     0.000    0.1614
   08/03/2005 10:00:00     12.000     0.000    0.1935
   08/03/2005 10:05:00      8.400     0.000    0.2000
   08/03/2005 10:10:00      9.600     0.000    0.1949
   08/03/2005 10:15:00      6.000     0.353    0.1948
   08/03/2005 10:20:00      1.200     0.552    0.1843
   08/03/2005 10:25:00      2.400     0.918    0.1628
   08/03/2005 10:30:00      2.400     0.903    0.1488
   08/03/2005 10:35:00      3.600     0.943    0.1376
   08/03/2005 10:40:00      2.400     0.885    0.1312
   08/03/2005 10:45:00      3.600     0.931    0.1230
   08/03/2005 10:50:00      4.800     0.615    0.1188
   08/03/2005 10:55:00      2.400     0.885    0.1182
   08/03/2005 11:00:00      6.000     0.000    0.1120
   08/03/2005 11:05:00      2.400     0.885    0.1154
   08/03/2005 11:10:00      2.400     0.885    0.1095
   08/03/2005 11:15:00      1.200     0.544    0.1044
   08/03/2005 11:20:00      2.400     0.885    0.0978
   08/03/2005 11:25:00      2.400     0.885    0.0943
  
  
  ************
  Node Results
  ************
  
  <<< Node J0 >>>
  ----------------------------------------------------------------
                           Inflow  Flooding     Depth      Head
  Date        Time            CMS       CMS    meters    meters
  ----------------------------------------------------------------
   08/03/2005 07:10:00      0.000     0.000     0.011    31.001
   08/03/2005 07:15:00      0.000     0.000     0.007    30.997
   08/03/2005 07:20:00      0.014     0.000     0.040    31.030
   08/03/2005 07:25:00      0.091     0.000     0.105    31.095
   08/03/2005 07:30:00      0.126     0.000     0.129    31.119
   08/03/2005 07:35:00      0.173     0.000     0.150    31.140
   08/03/2005 07:40:00      0.169     0.000     0.150    31.140
   08/03/2005 07:45:00      0.165     0.000     0.149    31.139
   08/03/2005 07:50:00      0.170     0.000     0.151    31.141
   08/03/2005 07:55:00      0.182     0.000     0.155    31.146
   08/03/2005 08:00:00      0.179     0.000     0.155    31.145
   08/03/2005 08:05:00      0.262     0.000     0.185    31.175
   08/03/2005 08:10:00      0.266     0.000     0.189    31.179
   08/03/2005 08:15:00      0.241     0.000     0.180    31.170
   08/03/2005 08:20:00      0.193     0.000     0.161    31.151
   08/03/2005 08:25:00      0.156     0.000     0.145    31.135
   08/03/2005 08:30:00      0.131     0.000     0.133    31.123
   08/03/2005 08:35:00      0.145     0.000     0.139    31.129
   08/03/2005 08:40:00      0.132     0.000     0.133    31.123
   08/03/2005 08:45:00      0.115     0.000     0.125    31.115
   08/03/2005 08:50:00      0.100     0.000     0.117    31.107
   08/03/2005 08:55:00      0.092     0.000     0.112    31.102
   08/03/2005 09:00:00      0.088     0.000     0.109    31.099
   08/03/2005 09:05:00      0.109     0.000     0.120    31.110
   08/03/2005 09:10:00      0.141     0.000     0.137    31.127
   08/03/2005 09:15:00      0.125     0.000     0.130    31.120
   08/03/2005 09:20:00      0.109     0.000     0.122    31.112
   08/03/2005 09:25:00      0.095     0.000     0.114    31.104
   08/03/2005 09:30:00      0.085     0.000     0.108    31.098
   08/03/2005 09:35:00      0.076     0.000     0.102    31.092
   08/03/2005 09:40:00      0.089     0.000     0.109    31.099
   08/03/2005 09:45:00      0.103     0.000     0.117    31.107
   08/03/2005 09:50:00      0.107     0.000     0.120    31.110
   08/03/2005 09:55:00      0.139     0.000     0.135    31.125
   08/03/2005 10:00:00      0.167     0.000     0.148    31.138
   08/03/2005 10:05:00      0.173     0.000     0.152    31.142
   08/03/2005 10:10:00      0.167     0.000     0.150    31.140
   08/03/2005 10:15:00      0.166     0.000     0.149    31.139
   08/03/2005 10:20:00      0.157     0.000     0.145    31.135
   08/03/2005 10:25:00      0.137     0.000     0.136    31.126
   08/03/2005 10:30:00      0.124     0.000     0.130    31.120
   08/03/2005 10:35:00      0.114     0.000     0.124    31.114
   08/03/2005 10:40:00      0.109     0.000     0.121    31.111
   08/03/2005 10:45:00      0.102     0.000     0.117    31.107
   08/03/2005 10:50:00      0.098     0.000     0.115    31.105
   08/03/2005 10:55:00      0.097     0.000     0.114    31.104
   08/03/2005 11:00:00      0.092     0.000     0.112    31.102
   08/03/2005 11:05:00      0.095     0.000     0.113    31.103
   08/03/2005 11:10:00      0.090     0.000     0.111    31.101
   08/03/2005 11:15:00      0.086     0.000     0.108    31.098
   08/03/2005 11:20:00      0.080     0.000     0.104    31.094
   08/03/2005 11:25:00      0.077     0.000     0.102    31.092
  
  
  <<< Node J1 >>>
  ----------------------------------------------------------------
                           Inflow  Flooding     Depth      Head
  Date        Time            CMS       CMS    meters    meters
  ----------------------------------------------------------------
   08/03/2005 07:10:00      0.000     0.000     0.000    28.990
   08/03/2005 07:15:00      0.000     0.000     0.002    28.992
   08/03/2005 07:20:00      0.014     0.000     0.044    29.034
   08/03/2005 07:25:00      0.080     0.000     0.110    29.100
   08/03/2005 07:30:00      0.097     0.000     0.125    29.115
   08/03/2005 07:35:00      0.119     0.000     0.138    29.128
   08/03/2005 07:40:00      0.103     0.000     0.129    29.119
   08/03/2005 07:45:00      0.093     0.000     0.123    29.113
   08/03/2005 07:50:00      0.092     0.000     0.122    29.112
   08/03/2005 07:55:00      0.096     0.000     0.125    29.115
   08/03/2005 08:00:00      0.091     0.000     0.121    29.111
   08/03/2005 08:05:00      0.147     0.000     0.153    29.143
   08/03/2005 08:10:00      0.139     0.000     0.150    29.140
   08/03/2005 08:15:00      0.115     0.000     0.137    29.127
   08/03/2005 08:20:00      0.080     0.000     0.115    29.105
   08/03/2005 08:25:00      0.057     0.000     0.097    29.087
   08/03/2005 08:30:00      0.043     0.000     0.085    29.075
   08/03/2005 08:35:00      0.054     0.000     0.093    29.083
   08/03/2005 08:40:00      0.047     0.000     0.088    29.078
   08/03/2005 08:45:00      0.037     0.000     0.079    29.069
   08/03/2005 08:50:00      0.029     0.000     0.070    29.060
   08/03/2005 08:55:00      0.025     0.000     0.066    29.056
   08/03/2005 09:00:00      0.024     0.000     0.064    29.054
   08/03/2005 09:05:00      0.039     0.000     0.079    29.069
   08/03/2005 09:10:00      0.061     0.000     0.099    29.089
   08/03/2005 09:15:00      0.047     0.000     0.089    29.079
   08/03/2005 09:20:00      0.036     0.000     0.078    29.068
   08/03/2005 09:25:00      0.027     0.000     0.069    29.059
   08/03/2005 09:30:00      0.022     0.000     0.061    29.051
   08/03/2005 09:35:00      0.018     0.000     0.056    29.046
   08/03/2005 09:40:00      0.027     0.000     0.066    29.056
   08/03/2005 09:45:00      0.036     0.000     0.077    29.067
   08/03/2005 09:50:00      0.038     0.000     0.079    29.069
   08/03/2005 09:55:00      0.059     0.000     0.097    29.087
   08/03/2005 10:00:00      0.076     0.000     0.110    29.100
   08/03/2005 10:05:00      0.075     0.000     0.110    29.100
   08/03/2005 10:10:00      0.068     0.000     0.105    29.095
   08/03/2005 10:15:00      0.065     0.000     0.103    29.093
   08/03/2005 10:20:00      0.057     0.000     0.097    29.087
   08/03/2005 10:25:00      0.043     0.000     0.085    29.075
   08/03/2005 10:30:00      0.036     0.000     0.078    29.068
   08/03/2005 10:35:00      0.031     0.000     0.072    29.062
   08/03/2005 10:40:00      0.029     0.000     0.069    29.059
   08/03/2005 10:45:00      0.026     0.000     0.066    29.056
   08/03/2005 10:50:00      0.025     0.000     0.064    29.054
   08/03/2005 10:55:00      0.025     0.000     0.065    29.055
   08/03/2005 11:00:00      0.023     0.000     0.063    29.053
   08/03/2005 11:05:00      0.026     0.000     0.065    29.055
   08/03/2005 11:10:00      0.023     0.000     0.063    29.053
   08/03/2005 11:15:00      0.021     0.000     0.060    29.050
[...]
   08/03/2005 09:15:00      0.320     1.530     0.204     0.030
   08/03/2005 09:20:00      0.281     1.434     0.195     0.028
   08/03/2005 09:25:00      0.246     1.377     0.184     0.025
   08/03/2005 09:30:00      0.220     1.333     0.174     0.023
   08/03/2005 09:35:00      0.200     1.293     0.166     0.022
   08/03/2005 09:40:00      0.199     1.307     0.164     0.022
   08/03/2005 09:45:00      0.230     1.403     0.173     0.023
   08/03/2005 09:50:00      0.255     1.450     0.182     0.025
   08/03/2005 09:55:00      0.288     1.501     0.192     0.027
   08/03/2005 10:00:00      0.358     1.607     0.213     0.032
   08/03/2005 10:05:00      0.403     1.651     0.227     0.035
   08/03/2005 10:10:00      0.402     1.626     0.229     0.035
   08/03/2005 10:15:00      0.391     1.605     0.227     0.034
   08/03/2005 10:20:00      0.381     1.588     0.224     0.034
   08/03/2005 10:25:00      0.353     1.541     0.217     0.032
   08/03/2005 10:30:00      0.317     1.488     0.206     0.030
   08/03/2005 10:35:00      0.293     1.457     0.198     0.028
   08/03/2005 10:40:00      0.276     1.440     0.192     0.027
   08/03/2005 10:45:00      0.264     1.428     0.188     0.026
   08/03/2005 10:50:00      0.253     1.415     0.184     0.025
   08/03/2005 10:55:00      0.249     1.416     0.182     0.025
   08/03/2005 11:00:00      0.245     1.414     0.180     0.025
   08/03/2005 11:05:00      0.241     1.407     0.179     0.024
   08/03/2005 11:10:00      0.242     1.413     0.179     0.024
   08/03/2005 11:15:00      0.232     1.387     0.176     0.024
   08/03/2005 11:20:00      0.221     1.362     0.172     0.023
   08/03/2005 11:25:00      0.211     1.339     0.168     0.022
  
  
  <<< Link C20 >>>
  ----------------------------------------------------------------
                             Flow  Velocity     Depth  Capacity/
  Date        Time            CMS     m/sec    meters   Setting 
  ----------------------------------------------------------------
   08/03/2005 07:10:00      0.000     0.000     0.000     0.000
   08/03/2005 07:15:00      0.000     0.000     0.001     0.000
   08/03/2005 07:20:00      0.001     0.355     0.011     0.001
   08/03/2005 07:25:00      0.023     0.695     0.060     0.005
   08/03/2005 07:30:00      0.188     1.308     0.158     0.020
   08/03/2005 07:35:00      0.402     1.640     0.227     0.035
   08/03/2005 07:40:00      0.526     1.771     0.259     0.042
   08/03/2005 07:45:00      0.532     1.757     0.262     0.043
   08/03/2005 07:50:00      0.526     1.742     0.262     0.043
   08/03/2005 07:55:00      0.543     1.757     0.266     0.044
   08/03/2005 08:00:00      0.570     1.786     0.272     0.045
   08/03/2005 08:05:00      0.638     1.836     0.288     0.049
   08/03/2005 08:10:00      0.827     2.011     0.323     0.058
   08/03/2005 08:15:00      0.841     2.015     0.326     0.059
   08/03/2005 08:20:00      0.751     1.945     0.310     0.055
   08/03/2005 08:25:00      0.621     1.830     0.283     0.048
   08/03/2005 08:30:00      0.517     1.730     0.260     0.042
   08/03/2005 08:35:00      0.466     1.675     0.248     0.039
   08/03/2005 08:40:00      0.474     1.697     0.249     0.040
   08/03/2005 08:45:00      0.447     1.672     0.242     0.038
   08/03/2005 08:50:00      0.401     1.615     0.229     0.035
   08/03/2005 08:55:00      0.358     1.559     0.217     0.032
   08/03/2005 09:00:00      0.331     1.525     0.209     0.031
   08/03/2005 09:05:00      0.330     1.523     0.209     0.031
   08/03/2005 09:10:00      0.389     1.605     0.225     0.034
   08/03/2005 09:15:00      0.463     1.711     0.244     0.038
   08/03/2005 09:20:00      0.441     1.681     0.239     0.037
   08/03/2005 09:25:00      0.391     1.613     0.226     0.034
   08/03/2005 09:30:00      0.348     1.557     0.213     0.032
   08/03/2005 09:35:00      0.313     1.511     0.203     0.029
   08/03/2005 09:40:00      0.297     1.486     0.198     0.028
   08/03/2005 09:45:00      0.325     1.531     0.206     0.030
   08/03/2005 09:50:00      0.364     1.591     0.217     0.032
   08/03/2005 09:55:00      0.402     1.634     0.228     0.035
   08/03/2005 10:00:00      0.491     1.736     0.251     0.040
   08/03/2005 10:05:00      0.578     1.829     0.270     0.045
   08/03/2005 10:10:00      0.600     1.845     0.275     0.046
   08/03/2005 10:15:00      0.590     1.832     0.273     0.046
   08/03/2005 10:20:00      0.578     1.822     0.271     0.045
   08/03/2005 10:25:00      0.545     1.790     0.263     0.043
   08/03/2005 10:30:00      0.493     1.738     0.251     0.040
   08/03/2005 10:35:00      0.452     1.697     0.241     0.038
   08/03/2005 10:40:00      0.422     1.662     0.233     0.036
   08/03/2005 10:45:00      0.401     1.638     0.227     0.035
   08/03/2005 10:50:00      0.382     1.615     0.222     0.033
   08/03/2005 10:55:00      0.370     1.601     0.218     0.033
   08/03/2005 11:00:00      0.364     1.596     0.216     0.032
   08/03/2005 11:05:00      0.356     1.585     0.214     0.032
   08/03/2005 11:10:00      0.356     1.588     0.214     0.032
   08/03/2005 11:15:00      0.346     1.575     0.211     0.031
   08/03/2005 11:20:00      0.331     1.555     0.206     0.030
   08/03/2005 11:25:00      0.314     1.531     0.201     0.029
  
  
  <<< Link C21 >>>
  ----------------------------------------------------------------
                             Flow  Velocity     Depth  Capacity/
  Date        Time            CMS     m/sec    meters   Setting 
  ----------------------------------------------------------------
   08/03/2005 07:10:00      0.000     0.000     0.000     0.000
   08/03/2005 07:15:00      0.000     0.000     0.003     0.000
   08/03/2005 07:20:00      0.009     1.450     0.029     0.008
   08/03/2005 07:25:00      0.079     2.318     0.088     0.044
   08/03/2005 07:30:00      0.128     1.772     0.148     0.092
   08/03/2005 07:35:00      0.179     1.707     0.191     0.133
   08/03/2005 07:40:00      0.187     1.608     0.206     0.148
   08/03/2005 07:45:00      0.187     1.605     0.206     0.149
   08/03/2005 07:50:00      0.194     1.656     0.207     0.149
   08/03/2005 07:55:00      0.208     1.717     0.212     0.154
   08/03/2005 08:00:00      0.209     1.690     0.215     0.157
   08/03/2005 08:05:00      0.290     2.028     0.238     0.182
   08/03/2005 08:10:00      0.307     1.915     0.258     0.204
   08/03/2005 08:15:00      0.285     1.809     0.255     0.201
   08/03/2005 08:20:00      0.236     1.654     0.237     0.182
   08/03/2005 08:25:00      0.193     1.547     0.216     0.159
   08/03/2005 08:30:00      0.164     1.480     0.199     0.141
   08/03/2005 08:35:00      0.173     1.596     0.196     0.138
   08/03/2005 08:40:00      0.161     1.509     0.194     0.136
   08/03/2005 08:45:00      0.142     1.414     0.186     0.128
   08/03/2005 08:50:00      0.125     1.343     0.176     0.118
   08/03/2005 08:55:00      0.114     1.318     0.167     0.110
   08/03/2005 09:00:00      0.109     1.313     0.162     0.105
   08/03/2005 09:05:00      0.126     1.460     0.167     0.110
   08/03/2005 09:10:00      0.161     1.624     0.184     0.126
   08/03/2005 09:15:00      0.151     1.447     0.190     0.133
   08/03/2005 09:20:00      0.132     1.345     0.183     0.125
   08/03/2005 09:25:00      0.117     1.293     0.172     0.115
   08/03/2005 09:30:00      0.105     1.255     0.163     0.106
   08/03/2005 09:35:00      0.095     1.217     0.155     0.099
   08/03/2005 09:40:00      0.105     1.335     0.156     0.100
   08/03/2005 09:45:00      0.120     1.416     0.165     0.108
   08/03/2005 09:50:00      0.126     1.401     0.171     0.114
   08/03/2005 09:55:00      0.155     1.560     0.184     0.127
   08/03/2005 10:00:00      0.188     1.650     0.203     0.145
   08/03/2005 10:05:00      0.199     1.616     0.214     0.157
   08/03/2005 10:10:00      0.196     1.578     0.215     0.158
   08/03/2005 10:15:00      0.195     1.582     0.214     0.157
   08/03/2005 10:20:00      0.186     1.544     0.211     0.153
   08/03/2005 10:25:00      0.167     1.461     0.203     0.145
   08/03/2005 10:30:00      0.151     1.417     0.194     0.136
   08/03/2005 10:35:00      0.140     1.384     0.186     0.128
   08/03/2005 10:40:00      0.132     1.371     0.181     0.123
   08/03/2005 10:45:00      0.125     1.340     0.176     0.118
   08/03/2005 10:50:00      0.120     1.327     0.172     0.115
   08/03/2005 10:55:00      0.118     1.332     0.170     0.113
   08/03/2005 11:00:00      0.113     1.299     0.168     0.111
   08/03/2005 11:05:00      0.115     1.323     0.167     0.110
   08/03/2005 11:10:00      0.111     1.290     0.166     0.109
   08/03/2005 11:15:00      0.106     1.261     0.163     0.106
   08/03/2005 11:20:00      0.099     1.229     0.159     0.103
   08/03/2005 11:25:00      0.095     1.216     0.156     0.099
  
  
  <<< Link C23 >>>
  ----------------------------------------------------------------
                             Flow  Velocity     Depth  Capacity/
  Date        Time            CMS     m/sec    meters   Setting 
  ----------------------------------------------------------------
   08/03/2005 07:10:00      0.068     1.002     0.090     0.007
   08/03/2005 07:15:00      0.059     1.002     0.082     0.006
   08/03/2005 07:20:00      0.045     0.986     0.070     0.004
   08/03/2005 07:25:00      0.053     0.992     0.077     0.005
   08/03/2005 07:30:00      0.298     1.253     0.209     0.023
   08/03/2005 07:35:00      1.216     1.936     0.403     0.062
   08/03/2005 07:40:00      2.071     2.329     0.513     0.087
   08/03/2005 07:45:00      2.333     2.440     0.539     0.094
   08/03/2005 07:50:00      2.321     2.439     0.537     0.093
   08/03/2005 07:55:00      2.362     2.447     0.543     0.095
   08/03/2005 08:00:00      2.486     2.481     0.557     0.098
   08/03/2005 08:05:00      2.642     2.517     0.575     0.103
   08/03/2005 08:10:00      3.369     2.692     0.650     0.123
   08/03/2005 08:15:00      3.739     2.807     0.679     0.131
   08/03/2005 08:20:00      3.465     2.745     0.654     0.124
   08/03/2005 08:25:00      2.939     2.615     0.603     0.110
   08/03/2005 08:30:00      2.443     2.474     0.551     0.097
   08/03/2005 08:35:00      2.116     2.374     0.514     0.088
   08/03/2005 08:40:00      2.066     2.357     0.508     0.086
   08/03/2005 08:45:00      1.994     2.331     0.500     0.084
   08/03/2005 08:50:00      1.814     2.261     0.478     0.079
   08/03/2005 08:55:00      1.617     2.190     0.451     0.073
   08/03/2005 09:00:00      1.467     2.130     0.430     0.068
   08/03/2005 09:05:00      1.399     2.098     0.421     0.066
   08/03/2005 09:10:00      1.518     2.137     0.440     0.070
   08/03/2005 09:15:00      1.846     2.257     0.484     0.080
   08/03/2005 09:20:00      1.911     2.298     0.490     0.082
   08/03/2005 09:25:00      1.730     2.232     0.466     0.076
   08/03/2005 09:30:00      1.533     2.157     0.440     0.070
   08/03/2005 09:35:00      1.369     2.082     0.417     0.065
   08/03/2005 09:40:00      1.256     2.023     0.400     0.061
   08/03/2005 09:45:00      1.278     2.029     0.404     0.062
   08/03/2005 09:50:00      1.422     2.099     0.425     0.067
   08/03/2005 09:55:00      1.575     2.164     0.447     0.071
   08/03/2005 10:00:00      1.860     2.258     0.487     0.081
   08/03/2005 10:05:00      2.269     2.406     0.534     0.093
   08/03/2005 10:10:00      2.481     2.481     0.556     0.098
   08/03/2005 10:15:00      2.478     2.484     0.555     0.098
   08/03/2005 10:20:00      2.434     2.471     0.550     0.097
   08/03/2005 10:25:00      2.326     2.440     0.538     0.094
   08/03/2005 10:30:00      2.125     2.377     0.515     0.088
   08/03/2005 10:35:00      1.929     2.306     0.492     0.082
   08/03/2005 10:40:00      1.778     2.249     0.473     0.078
   08/03/2005 10:45:00      1.671     2.210     0.458     0.074
   08/03/2005 10:50:00      1.585     2.183     0.446     0.071
   08/03/2005 10:55:00      1.514     2.153     0.437     0.069
   08/03/2005 11:00:00      1.479     2.137     0.432     0.068
   08/03/2005 11:05:00      1.442     2.120     0.427     0.067
   08/03/2005 11:10:00      1.427     2.111     0.425     0.066
   08/03/2005 11:15:00      1.403     2.101     0.421     0.066
   08/03/2005 11:20:00      1.346     2.070     0.413     0.064
   08/03/2005 11:25:00      1.279     2.035     0.404     0.062
  
  
  <<< Link C24 >>>
  ----------------------------------------------------------------
                             Flow  Velocity     Depth  Capacity/
  Date        Time            CMS     m/sec    meters   Setting 
  ----------------------------------------------------------------
   08/03/2005 07:10:00      0.000     0.000     0.000     0.000
   08/03/2005 07:15:00      0.000     0.000     0.003     0.000
   08/03/2005 07:20:00      0.007     0.825     0.032     0.008
   08/03/2005 07:25:00      0.070     1.391     0.111     0.053
   08/03/2005 07:30:00      0.127     1.444     0.163     0.093
   08/03/2005 07:35:00      0.177     1.615     0.190     0.115
   08/03/2005 07:40:00      0.190     1.651     0.196     0.121
   08/03/2005 07:45:00      0.191     1.679     0.195     0.120
   08/03/2005 07:50:00      0.198     1.718     0.197     0.121
   08/03/2005 07:55:00      0.213     1.761     0.203     0.127
   08/03/2005 08:00:00      0.215     1.758     0.205     0.129
   08/03/2005 08:05:00      0.292     1.956     0.236     0.157
   08/03/2005 08:10:00      0.316     1.962     0.248     0.169
   08/03/2005 08:15:00      0.296     1.925     0.241     0.162
   08/03/2005 08:20:00      0.248     1.824     0.221     0.143
   08/03/2005 08:25:00      0.204     1.723     0.201     0.125
   08/03/2005 08:30:00      0.174     1.645     0.185     0.111
   08/03/2005 08:35:00      0.181     1.681     0.187     0.113
   08/03/2005 08:40:00      0.172     1.629     0.185     0.111
   08/03/2005 08:45:00      0.153     1.564     0.175     0.103
   08/03/2005 08:50:00      0.134     1.502     0.165     0.094
   08/03/2005 08:55:00      0.123     1.466     0.158     0.088
   08/03/2005 09:00:00      0.118     1.446     0.155     0.086
   08/03/2005 09:05:00      0.134     1.518     0.163     0.093
   08/03/2005 09:10:00      0.169     1.627     0.183     0.109
   08/03/2005 09:15:00      0.163     1.568     0.183     0.109
   08/03/2005 09:20:00      0.144     1.513     0.172     0.100
   08/03/2005 09:25:00      0.129     1.467     0.163     0.092
   08/03/2005 09:30:00      0.116     1.427     0.155     0.086
   08/03/2005 09:35:00      0.106     1.386     0.148     0.081
   08/03/2005 09:40:00      0.115     1.440     0.153     0.084
   08/03/2005 09:45:00      0.131     1.492     0.163     0.092
   08/03/2005 09:50:00      0.138     1.503     0.168     0.097
   08/03/2005 09:55:00      0.166     1.605     0.183     0.109
   08/03/2005 10:00:00      0.201     1.690     0.201     0.125
   08/03/2005 10:05:00      0.214     1.711     0.208     0.132
   08/03/2005 10:10:00      0.213     1.710     0.207     0.131
   08/03/2005 10:15:00      0.212     1.717     0.207     0.130
   08/03/2005 10:20:00      0.205     1.697     0.203     0.127
   08/03/2005 10:25:00      0.186     1.646     0.194     0.119
   08/03/2005 10:30:00      0.170     1.608     0.186     0.112
   08/03/2005 10:35:00      0.159     1.577     0.179     0.106
   08/03/2005 10:40:00      0.151     1.557     0.175     0.102
   08/03/2005 10:45:00      0.144     1.530     0.171     0.099
   08/03/2005 10:50:00      0.139     1.514     0.168     0.096
   08/03/2005 10:55:00      0.137     1.511     0.167     0.096
   08/03/2005 11:00:00      0.133     1.490     0.164     0.094
   08/03/2005 11:05:00      0.134     1.499     0.165     0.094
   08/03/2005 11:10:00      0.130     1.481     0.163     0.093
   08/03/2005 11:15:00      0.125     1.462     0.160     0.090
   08/03/2005 11:20:00      0.119     1.439     0.156     0.087
   08/03/2005 11:25:00      0.114     1.426     0.153     0.084
  
  
  <<< Link C22 >>>
  ----------------------------------------------------------------
                             Flow  Velocity     Depth  Capacity/
  Date        Time            CMS     m/sec    meters   Setting 
  ----------------------------------------------------------------
   08/03/2005 07:10:00      0.000     0.000     0.036     0.007
   08/03/2005 07:15:00      0.000     0.002     0.029     0.005
   08/03/2005 07:20:00      0.004     0.352     0.040     0.008
   08/03/2005 07:25:00      0.061     1.467     0.090     0.027
   08/03/2005 07:30:00      0.130     1.551     0.144     0.054
   08/03/2005 07:35:00      0.179     1.487     0.185     0.078
   08/03/2005 07:40:00      0.195     1.427     0.202     0.089
   08/03/2005 07:45:00      0.198     1.426     0.204     0.090
   08/03/2005 07:50:00      0.206     1.477     0.205     0.091
   08/03/2005 07:55:00      0.222     1.536     0.209     0.094
   08/03/2005 08:00:00      0.225     1.530     0.212     0.096
   08/03/2005 08:05:00      0.302     1.785     0.234     0.110
   08/03/2005 08:10:00      0.331     1.743     0.253     0.123
   08/03/2005 08:15:00      0.313     1.664     0.251     0.122
   08/03/2005 08:20:00      0.265     1.556     0.235     0.111
   08/03/2005 08:25:00      0.220     1.475     0.214     0.097
   08/03/2005 08:30:00      0.189     1.431     0.197     0.086
   08/03/2005 08:35:00      0.194     1.518     0.193     0.083
   08/03/2005 08:40:00      0.185     1.471     0.191     0.082
   08/03/2005 08:45:00      0.166     1.394     0.183     0.077
   08/03/2005 08:50:00      0.147     1.341     0.173     0.071
   08/03/2005 08:55:00      0.135     1.321     0.165     0.066
   08/03/2005 09:00:00      0.129     1.320     0.160     0.064
   08/03/2005 09:05:00      0.145     1.430     0.164     0.066
   08/03/2005 09:10:00      0.181     1.561     0.180     0.075
   08/03/2005 09:15:00      0.177     1.448     0.187     0.079
   08/03/2005 09:20:00      0.158     1.358     0.181     0.076
   08/03/2005 09:25:00      0.142     1.323     0.171     0.070
   08/03/2005 09:30:00      0.129     1.298     0.162     0.065
   08/03/2005 09:35:00      0.119     1.278     0.155     0.060
   08/03/2005 09:40:00      0.128     1.368     0.155     0.061
   08/03/2005 09:45:00      0.144     1.442     0.163     0.065
   08/03/2005 09:50:00      0.152     1.433     0.170     0.069
   08/03/2005 09:55:00      0.181     1.539     0.182     0.077
   08/03/2005 10:00:00      0.218     1.620     0.199     0.087
   08/03/2005 10:05:00      0.233     1.595     0.211     0.095
   08/03/2005 10:10:00      0.233     1.566     0.214     0.097
   08/03/2005 10:15:00      0.233     1.575     0.213     0.096
   08/03/2005 10:20:00      0.227     1.560     0.210     0.094
   08/03/2005 10:25:00      0.208     1.511     0.203     0.090
   08/03/2005 10:30:00      0.192     1.490     0.194     0.084
   08/03/2005 10:35:00      0.180     1.476     0.187     0.079
   08/03/2005 10:40:00      0.173     1.472     0.182     0.076
   08/03/2005 10:45:00      0.165     1.458     0.177     0.074
   08/03/2005 10:50:00      0.160     1.454     0.174     0.072
   08/03/2005 10:55:00      0.159     1.463     0.172     0.071
   08/03/2005 11:00:00      0.155     1.446     0.170     0.070
   08/03/2005 11:05:00      0.156     1.463     0.170     0.069
   08/03/2005 11:10:00      0.153     1.448     0.169     0.069
   08/03/2005 11:15:00      0.148     1.429     0.167     0.067
   08/03/2005 11:20:00      0.142     1.410     0.163     0.065
   08/03/2005 11:25:00      0.137     1.406     0.160     0.063
  

  Analysis begun on:  Wed Mar 27 20:48:49 2019
  Analysis ended on:  Wed Mar 27 20:48:50 2019
  Total elapsed time: 00:00:01