
  EPA STORM WATER MANAGEMENT MODEL - VERSION 5.1 (Build 5.1.012)
  --------------------------------------------------------------

  
  *************
  Element Count
  *************
  Number of rain gages ...... 1
  Number of subcatchments ... 15
  Number of nodes ........... 25
  Number of links ........... 24
  Number of pollutants ...... 0
  Number of land uses ....... 0
  
  
  ****************
  Raingage Summary
  ****************
                                                      Data       Recording
  Name                 Data Source                    Type       Interval 
  ------------------------------------------------------------------------
  1                    20050803                       VOLUME       5 min.
  
  
  ********************
  Subcatchment Summary
  ********************
  Name                       Area     Width   %Imperv    %Slope Rain Gage            Outlet              
  -----------------------------------------------------------------------------------------------------------
  S1                         2.21    400.00     80.00    0.0500 1                    J1                  
  S2                         7.25    400.00     50.00    0.0500 1                    J0                  
  S3                         1.53    400.00     30.00    0.0500 1                    J4                  
  S4                         6.18    400.00     20.00    0.0500 1                    J8                  
  S5                         9.28    400.00     20.00    0.0500 1                    J7                  
  S6                         6.98    400.00     60.00    0.0500 1                    J5                  
  S7                         3.28    400.00     40.00    0.0500 1                    J25                 
  S8                        10.68    400.00     70.00    0.0500 1                    J11                 
  S9                        16.43    400.00     30.00    0.0500 1                    J14                 
  S10                        2.73    400.00     40.00    0.0500 1                    J9                  
  S11                        9.27    700.00     40.00    0.0500 1                    J10                 
  S12                       10.58    400.00     60.00    0.0500 1                    J17                 
  S13                       10.08    500.00     60.00    0.0500 1                    J24                 
  S14                       11.53    400.00     40.00    0.0500 1                    J15                 
  S15                        8.92    400.00     50.00    0.0500 1                    J23                 
  
  
  ************
  Node Summary
  ************
                                           Invert      Max.    Ponded    External
  Name                 Type                 Elev.     Depth      Area    Inflow  
  -------------------------------------------------------------------------------
  J0                   JUNCTION             30.99      4.00       0.0
  J1                   JUNCTION             28.99      4.00       0.0
  J2                   JUNCTION             25.99      4.00       0.0
  J3                   JUNCTION             30.99      4.00       0.0
  J4                   JUNCTION             33.99      4.00       0.0
  J5                   JUNCTION             28.99      4.00       0.0
  J6                   JUNCTION             23.79      4.00       0.0
  J7                   JUNCTION             28.39      4.00       0.0
  J8                   JUNCTION             29.99      4.00       0.0
  J9                   JUNCTION             28.69      4.00       0.0
  J10                  JUNCTION             25.99      4.00       0.0
  J11                  JUNCTION             25.69      4.00       0.0
  J12                  JUNCTION             22.79      4.00       0.0
  J13                  JUNCTION             25.29      4.00       0.0
  J14                  JUNCTION             24.59      4.00       0.0
  J15                  JUNCTION             24.19      4.00       0.0
  J16                  JUNCTION             23.39      4.00       0.0
  J17                  JUNCTION             22.09      4.00       0.0
  J18                  JUNCTION             16.00      4.00       0.0
  J20                  JUNCTION             17.70      4.00       0.0
  J21                  JUNCTION             19.00      4.00       0.0
  J23                  JUNCTION             22.29      4.00       0.0
  J24                  JUNCTION             20.89      4.00       0.0
  J25                  JUNCTION             30.19      4.00       0.0
  J19                  OUTFALL              15.50      3.60       0.0
  
  
  ************
  Link Summary
  ************
  Name             From Node        To Node          Type            Length    %Slope Roughness
  ---------------------------------------------------------------------------------------------
  C0               J0               J2               CONDUIT          214.0    2.3371    0.0110
  C1               J1               J2               CONDUIT          152.0    1.9741    0.0110
  C2               J3               J2               CONDUIT          306.0    1.6342    0.0110
  C3               J4               J3               CONDUIT          128.0    2.3444    0.0110
  C4               J2               J6               CONDUIT          293.0    0.7509    0.0110
  C5               J5               J6               CONDUIT          246.0    2.1143    0.0110
  C6               J25              J11              CONDUIT          289.0    1.5573    0.0110
  C7               J6               J12              CONDUIT          335.0    0.2985    0.0110
  C8               J7               J6               CONDUIT          187.0    2.4606    0.0110
  C9               J8               J9               CONDUIT          119.0    1.0925    0.0110
  C10              J9               J16              CONDUIT          325.0    1.6310    0.0110
  C11              J10              J11              CONDUIT          227.0    0.1322    0.0110
  C12              J12              J18              CONDUIT          401.0    1.6935    0.0110
  C13              J17              J18              CONDUIT          267.0    2.2815    0.0110
  C14              J11              J13              CONDUIT          113.0    0.3540    0.0110
  C16              J13              J17              CONDUIT          409.0    0.7824    0.0110
  C17              J24              J20              CONDUIT          329.0    0.9697    0.0110
  C18              J20              J18              CONDUIT          215.0    0.7907    0.0110
  C19              J16              J21              CONDUIT          437.0    1.0046    0.0110
  C20              J21              J20              CONDUIT          295.0    0.4407    0.0110
  C21              J23              J21              CONDUIT          204.0    1.6130    0.0110
  C23              J18              J19              CONDUIT          161.0    0.3106    0.0110
  C24              J15              J16              CONDUIT          197.0    0.4061    0.0110
  C22              J14              J12              CONDUIT          280.0    0.6429    0.0110
  
  
  *********************
  Cross Section Summary
  *********************
                                        Full     Full     Hyd.     Max.   No. of     Full
  Conduit          Shape               Depth     Area     Rad.    Width  Barrels     Flow
  ---------------------------------------------------------------------------------------
  C0               CIRCULAR             0.70     0.38     0.17     0.70        1     1.67
  C1               CIRCULAR             0.60     0.28     0.15     0.60        1     1.02
  C2               CIRCULAR             0.80     0.50     0.20     0.80        1     2.00
  C3               CIRCULAR             0.60     0.28     0.15     0.60        1     1.11
  C4               CIRCULAR             1.20     1.13     0.30     1.20        1     3.99
  C5               CIRCULAR             0.70     0.38     0.17     0.70        1     1.59
  C6               CIRCULAR             0.80     0.50     0.20     0.80        1     1.95