
  EPA STORM WATER MANAGEMENT MODEL - VERSION 5.1 (Build 5.1.012)
  --------------------------------------------------------------

  
  *************
  Element Count
  *************
  Number of rain gages ...... 1
  Number of subcatchments ... 15
  Number of nodes ........... 25
  Number of links ........... 24
  Number of pollutants ...... 0
  Number of land uses ....... 0
  
  
  ****************
  Raingage Summary
  ****************
                                                      Data       Recording
  Name                 Data Source                    Type       Interval 
  ------------------------------------------------------------------------
  1                    20050803                       VOLUME       5 min.
  
  
  ********************
  Subcatchment Summary
  ********************
  Name                       Area     Width   %Imperv    %Slope Rain Gage            Outlet              
  -----------------------------------------------------------------------------------------------------------
  S1                         2.21    400.00     80.00    0.0500 1                    J1                  
  S2                         7.25    400.00     50.00    0.0500 1                    J0                  
  S3                         1.53    400.00     30.00    0.0500 1                    J4                  
  S4                         6.18    400.00     20.00    0.0500 1                    J8                  
  S5                         9.28    400.00     20.00    0.0500 1                    J7                  
  S6                         6.98    400.00     60.00    0.0500 1                    J5                  
  S7                         3.28    400.00     40.00    0.0500 1                    J25                 
  S8                        10.68    400.00     70.00    0.0500 1                    J11                 
  S9                        16.43    400.00     30.00    0.0500 1                    J14                 
  S10                        2.73    400.00     40.00    0.0500 1                    J9                  
  S11                        9.27    700.00     40.00    0.0500 1                    J10                 
  S12                       10.58    400.00     60.00    0.0500 1                    J17                 
  S13                       10.08    500.00     60.00    0.0500 1                    J24                 
  S14                       11.53    400.00     40.00    0.0500 1                    J15                 
  S15                        8.92    400.00     50.00    0.0500 1                    J23                 
  
  
  ************
  Node Summary
  ************
                                           Invert      Max.    Ponded    External
  Name                 Type                 Elev.     Depth      Area    Inflow  
  -------------------------------------------------------------------------------
  J0                   JUNCTION             30.99      4.00       0.0
  J1                   JUNCTION             28.99      4.00       0.0
  J2                   JUNCTION             25.99      4.00       0.0
  J3                   JUNCTION             30.99      4.00       0.0
  J4                   JUNCTION             33.99      4.00       0.0
  J5                   JUNCTION             28.99      4.00       0.0
  J6                   JUNCTION             23.79      4.00       0.0
  J7                   JUNCTION             28.39      4.00       0.0
  J8                   JUNCTION             29.99      4.00       0.0
  J9                   JUNCTION             28.69      4.00       0.0
  J10                  JUNCTION             25.99      4.00       0.0
  J11                  JUNCTION             25.69      4.00       0.0
  J12                  JUNCTION             22.79      4.00       0.0
  J13                  JUNCTION             25.29      4.00       0.0
  J14                  JUNCTION             24.59      4.00       0.0
  J15                  JUNCTION             24.19      4.00       0.0
  J16                  JUNCTION             23.39      4.00       0.0
  J17                  JUNCTION             22.09      4.00       0.0
  J18                  JUNCTION             16.00      4.00       0.0
  J20                  JUNCTION             17.70      4.00       0.0
  J21                  JUNCTION             19.00      4.00       0.0
  J23                  JUNCTION             22.29      4.00       0.0
  J24                  JUNCTION             20.89      4.00       0.0
  J25                  JUNCTION             30.19      4.00       0.0
  J19                  OUTFALL              15.50      3.60       0.0
  
  
  ************
  Link Summary
  ************
  Name             From Node        To Node          Type            Length    %Slope Roughness
  ---------------------------------------------------------------------------------------------
  C0               J0               J2               CONDUIT          214.0    2.3371    0.0110
  C1               J1               J2               CONDUIT          152.0    1.9741    0.0110
  C2               J3               J2               CONDUIT          306.0    1.6342    0.0110
  C3               J4               J3               CONDUIT          128.0    2.3444    0.0110
  C4               J2               J6               CONDUIT          293.0    0.7509    0.0110
  C5               J5               J6               CONDUIT          246.0    2.1143    0.0110
  C6               J25              J11              CONDUIT          289.0    1.5573    0.0110
  C7               J6               J12              CONDUIT          335.0    0.2985    0.0110
  C8               J7               J6               CONDUIT          187.0    2.4606    0.0110
  C9               J8               J9               CONDUIT          119.0    1.0925    0.0110
  C10              J9               J16              CONDUIT          325.0    1.6310    0.0110
  C11              J10              J11              CONDUIT          227.0    0.1322    0.0110
  C12              J12              J18              CONDUIT          401.0    1.6935    0.0110
  C13              J17              J18              CONDUIT          267.0    2.2815    0.0110
  C14              J11              J13              CONDUIT          113.0    0.3540    0.0110
  C16              J13              J17              CONDUIT          409.0    0.7824    0.0110
  C17              J24              J20              CONDUIT          329.0    0.9697    0.0110
  C18              J20              J18              CONDUIT          215.0    0.7907    0.0110
  C19              J16              J21              CONDUIT          437.0    1.0046    0.0110
  C20              J21              J20              CONDUIT          295.0    0.4407    0.0110
  C21              J23              J21              CONDUIT          204.0    1.6130    0.0110
  C23              J18              J19              CONDUIT          161.0    0.3106    0.0110
  C24              J15              J16              CONDUIT          197.0    0.4061    0.0110
  C22              J14              J12              CONDUIT          280.0    0.6429    0.0110
  
  
  *********************
  Cross Section Summary
  *********************
                                        Full     Full     Hyd.     Max.   No. of     Full
  Conduit          Shape               Depth     Area     Rad.    Width  Barrels     Flow
  ---------------------------------------------------------------------------------------
  C0               CIRCULAR             0.70     0.38     0.17     0.70        1     1.67
  C1               CIRCULAR             0.60     0.28     0.15     0.60        1     1.02
  C2               CIRCULAR             0.80     0.50     0.20     0.80        1     2.00
  C3               CIRCULAR             0.60     0.28     0.15     0.60        1     1.11
  C4               CIRCULAR             1.20     1.13     0.30     1.20        1     3.99
  C5               CIRCULAR             0.70     0.38     0.17     0.70        1     1.59
  C6               CIRCULAR             0.80     0.50     0.20     0.80        1     1.95
  C7               CIRCULAR             2.40     4.52     0.60     2.40        1    15.99
  C8               CIRCULAR             0.70     0.38     0.17     0.70        1     1.72
  C9               CIRCULAR             0.70     0.38     0.17     0.70        1     1.14
  C10              CIRCULAR             1.00     0.79     0.25     1.00        1     3.62
  C11              CIRCULAR             1.50     1.77     0.38     1.50        1     3.04
  C12              CIRCULAR             3.00     7.07     0.75     3.00        1    69.04
  C13              CIRCULAR             1.50     1.77     0.38     1.50        1    12.62
  C14              CIRCULAR             1.50     1.77     0.38     1.50        1     4.97
  C16              CIRCULAR             1.35     1.43     0.34     1.35        1     5.58
  C17              CIRCULAR             0.80     0.50     0.20     0.80        1     1.54
  C18              CIRCULAR             3.00     7.07     0.75     3.00        1    47.18
  C19              CIRCULAR             3.00     7.07     0.75     3.00        1    53.18
  C20              CIRCULAR             3.00     7.07     0.75     3.00        1    35.22
  C21              CIRCULAR             1.00     0.79     0.25     1.00        1     3.60
  C23              CIRCULAR             3.60    10.18     0.90     3.60        1    48.08
  C24              CIRCULAR             1.10     0.95     0.28     1.10        1     2.33
  C22              CIRCULAR             1.40     1.54     0.35     1.40        1     5.57
  
  
  
  *********************************************************
  NOTE: The summary statistics displayed in this report are
  based on results found at every computational time step,  
  not just on results from each reporting time step.
  *********************************************************
  
  ****************
  Analysis Options
  ****************
  Flow Units ............... CMS
  Process Models:
    Rainfall/Runoff ........ YES
    RDII ................... NO
    Snowmelt ............... NO
    Groundwater ............ NO
    Flow Routing ........... YES
    Ponding Allowed ........ NO
    Water Quality .......... NO
  Infiltration Method ...... HORTON
  Flow Routing Method ...... DYNWAVE
  Starting Date ............ 08/03/2005 07:05:00
  Ending Date .............. 08/03/2005 11:10:00
  Antecedent Dry Days ...... 0.0
  Report Time Step ......... 00:05:00
  Wet Time Step ............ 00:05:00
  Dry Time Step ............ 01:00:00
  Routing Time Step ........ 30.00 sec
  Variable Time Step ....... YES
  Maximum Trials ........... 8
  Number of Threads ........ 1
  Head Tolerance ........... 0.005000 m
  
  
  **************************        Volume         Depth
  Runoff Quantity Continuity     hectare-m            mm
  **************************     ---------       -------
  Total Precipitation ......         4.643        39.700
  Evaporation Loss .........         0.000         0.000
  Infiltration Loss ........         0.573         4.902
  Surface Runoff ...........         2.463        21.061
  Final Storage ............         1.631        13.943
  Continuity Error (%) .....        -0.519
  
  
  **************************        Volume        Volume
  Flow Routing Continuity        hectare-m      10^6 ltr
  **************************     ---------     ---------
  Dry Weather Inflow .......         0.000         0.000
  Wet Weather Inflow .......         2.441        24.406
  Groundwater Inflow .......         0.000         0.000
  RDII Inflow ..............         0.000         0.000
  External Inflow ..........         0.000         0.000
  External Outflow .........         2.364        23.645
  Flooding Loss ............         0.000         0.000
  Evaporation Loss .........         0.000         0.000
  Exfiltration Loss ........         0.000         0.000
  Initial Stored Volume ....         0.021         0.207
  Final Stored Volume ......         0.093         0.930
  Continuity Error (%) .....         0.158
  
  
  *************************
  Highest Continuity Errors
  *************************
  Node J21 (1.52%)
  Node J16 (1.15%)
  Node J18 (1.07%)
  Node J6 (1.03%)
  
  
  ***************************
  Time-Step Critical Elements
  ***************************
  Link C14 (88.59%)
  
  
  ********************************
  Highest Flow Instability Indexes
  ********************************
  Link C10 (5)
  Link C21 (4)
  Link C8 (4)
  Link C4 (4)
  Link C7 (4)
  
  
  *************************
  Routing Time Step Summary
  *************************
  Minimum Time Step           :    21.68 sec
  Average Time Step           :    26.63 sec
  Maximum Time Step           :    30.00 sec
  Percent in Steady State     :    -0.00
  Average Iterations per Step :     2.00
  Percent Not Converging      :     0.00
  
  
  ***************************
  Subcatchment Runoff Summary
  ***************************
  
  --------------------------------------------------------------------------------------------------------
                            Total      Total      Total      Total      Total       Total     Peak  Runoff
                           Precip      Runon       Evap      Infil     Runoff      Runoff   Runoff   Coeff
  Subcatchment                 mm         mm         mm         mm         mm    10^6 ltr      CMS
  --------------------------------------------------------------------------------------------------------
  S1                        39.70       0.00       0.00       1.80      34.07        0.75     0.14   0.858
  S2                        39.70       0.00       0.00       4.49      23.29        1.69     0.25   0.587
  S3                        39.70       0.00       0.00       6.29      24.65        0.38     0.06   0.621
  S4                        39.70       0.00       0.00       7.19      14.70        0.91     0.12   0.370
  S5                        39.70       0.00       0.00       7.19      12.77        1.19     0.16   0.322
  S6                        39.70       0.00       0.00       3.59      26.24        1.83     0.27   0.661
  S7                        39.70       0.00       0.00       5.39      23.97        0.79     0.12   0.604
  S8                        39.70       0.00       0.00       2.69      26.92        2.87     0.41   0.678
  S9                        39.70       0.00       0.00       6.29      13.78        2.26     0.31   0.347
  S10                       39.70       0.00       0.00       5.39      24.77        0.68     0.11   0.624
  S11                       39.70       0.00       0.00       5.39      21.77        2.02     0.30   0.548
  S12                       39.70       0.00       0.00       3.59      24.39        2.58     0.37   0.614
  S13                       39.70       0.00       0.00       3.59      25.61        2.58     0.38   0.645
  S14                       39.70       0.00       0.00       5.39      18.26        2.11     0.30   0.460
  S15                       39.70       0.00       0.00       4.49      22.37        1.99     0.29   0.563
  
  
  ******************
  Node Depth Summary
  ******************
  
  ---------------------------------------------------------------------------------
                                 Average  Maximum  Maximum  Time of Max    Reported
                                   Depth    Depth      HGL   Occurrence   Max Depth
  Node                 Type       Meters   Meters   Meters  days hr:min      Meters
  ---------------------------------------------------------------------------------
  J0                   JUNCTION     0.12     0.18    31.17     0  01:00        0.18
  J1                   JUNCTION     0.09     0.15    29.14     0  01:00        0.15
  J2                   JUNCTION     0.18     0.27    26.26     0  01:04        0.27
  J3                   JUNCTION     0.06     0.09    31.08     0  01:02        0.09
  J4                   JUNCTION     0.06     0.10    34.09     0  01:00        0.10
  J5                   JUNCTION     0.13     0.20    29.19     0  01:00        0.20
  J6                   JUNCTION     0.26     0.39    24.18     0  01:06        0.39
  J7                   JUNCTION     0.10     0.14    28.53     0  01:00        0.14
  J8                   JUNCTION     0.11     0.15    30.14     0  01:00        0.15
  J9                   JUNCTION     0.11     0.17    28.86     0  01:01        0.16
  J10                  JUNCTION     0.21     0.31    26.30     0  01:02        0.31
  J11                  JUNCTION     0.27     0.41    26.10     0  01:05        0.41
  J12                  JUNCTION     0.18     0.27    23.06     0  01:07        0.27
  J13                  JUNCTION     0.23     0.35    25.64     0  01:05        0.35
  J14                  JUNCTION     0.15     0.22    24.81     0  01:05        0.22
  J15                  JUNCTION     0.18     0.27    24.46     0  01:01        0.27
  J16                  JUNCTION     0.14     0.21    23.60     0  01:05        0.21
  J17                  JUNCTION     0.21     0.31    22.40     0  01:06        0.31
  J18                  JUNCTION     0.44     0.65    16.65     0  01:08        0.65
  J20                  JUNCTION     0.22     0.32    18.02     0  01:08        0.32
  J21                  JUNCTION     0.21     0.31    19.31     0  01:07        0.31
  J23                  JUNCTION     0.13     0.19    22.48     0  01:00        0.19
  J24                  JUNCTION     0.18     0.27    21.16     0  01:05        0.27
  J25                  JUNCTION     0.09     0.13    30.32     0  01:01        0.13
  J19                  OUTFALL      0.44     0.65    16.15     0  01:09        0.65
  
  
  *******************
  Node Inflow Summary
  *******************
  
  -------------------------------------------------------------------------------------------------
                                  Maximum  Maximum                  Lateral       Total        Flow
                                  Lateral    Total  Time of Max      Inflow      Inflow     Balance
                                   Inflow   Inflow   Occurrence      Volume      Volume       Error
  Node                 Type           CMS      CMS  days hr:min    10^6 ltr    10^6 ltr     Percent
  -------------------------------------------------------------------------------------------------
  J0                   JUNCTION     0.249    0.249     0  01:00        1.68        1.67      -0.254
  J1                   JUNCTION     0.143    0.143     0  01:00       0.749       0.748       0.111
  J2                   JUNCTION     0.000    0.447     0  01:01           0         2.8       0.574
  J3                   JUNCTION     0.000    0.062     0  01:00           0       0.374       0.984
  J4                   JUNCTION     0.062    0.062     0  01:00       0.375       0.374       0.062
  J5                   JUNCTION     0.275    0.275     0  01:00        1.82        1.82       0.253
  J6                   JUNCTION     0.000    0.860     0  01:04           0        5.76       1.043
  J7                   JUNCTION     0.157    0.157     0  01:00        1.17        1.17       0.261
  J8                   JUNCTION     0.119    0.119     0  01:00       0.899       0.898       0.220
  J9                   JUNCTION     0.107    0.226     0  01:00       0.672        1.57       0.553
  J10                  JUNCTION     0.299    0.299     0  01:00           2           2       0.655
  J11                  JUNCTION     0.407    0.811     0  01:02        2.85        5.61       0.923
  J12                  JUNCTION     0.000    1.161     0  01:06           0        7.93       0.462
  J13                  JUNCTION     0.000    0.808     0  01:05           0        5.56       0.679
  J14                  JUNCTION     0.310    0.310     0  01:05        2.24        2.24       0.504
  J15                  JUNCTION     0.295    0.295     0  01:05        2.09        2.09       0.384
  J16                  JUNCTION     0.000    0.518     0  01:01           0        3.64       1.159
  J17                  JUNCTION     0.367    1.172     0  01:05        2.56        8.08       0.512
  J18                  JUNCTION     0.000    3.462     0  01:07           0        23.9       1.079
  J20                  JUNCTION     0.000    1.152     0  01:06           0        8.03       0.891
  J21                  JUNCTION     0.000    0.793     0  01:05           0        5.57       1.546
  J23                  JUNCTION     0.287    0.287     0  01:05        1.98        1.98       0.188
  J24                  JUNCTION     0.380    0.380     0  01:05        2.56        2.56       0.346
  J25                  JUNCTION     0.122    0.122     0  01:00        0.78        0.78       0.397
  J19                  OUTFALL      0.000    3.457     0  01:09           0        23.6       0.000
  
  
  **********************
  Node Surcharge Summary
  **********************
  
  No nodes were surcharged.
  
  
  *********************
  Node Flooding Summary
  *********************
  
  No nodes were flooded.
  
  
  ***********************
  Outfall Loading Summary
  ***********************
  
  -----------------------------------------------------------
                         Flow       Avg       Max       Total
                         Freq      Flow      Flow      Volume
  Outfall Node           Pcnt       CMS       CMS    10^6 ltr
  -----------------------------------------------------------
  J19                  100.00     1.664     3.457      23.645
  -----------------------------------------------------------
  System               100.00     1.664     3.457      23.645
  
  
  ********************
  Link Flow Summary
  ********************
  
  -----------------------------------------------------------------------------
                                 Maximum  Time of Max   Maximum    Max/    Max/
                                  |Flow|   Occurrence   |Veloc|    Full    Full
  Link                 Type          CMS  days hr:min     m/sec    Flow   Depth
  -----------------------------------------------------------------------------
  C0                   CONDUIT     0.250     0  01:00      4.43    0.15    0.32
  C1                   CONDUIT     0.144     0  01:00      1.93    0.14    0.35
  C2                   CONDUIT     0.058     0  01:02      0.86    0.03    0.23
  C3                   CONDUIT     0.062     0  01:00      2.19    0.06    0.16
  C4                   CONDUIT     0.436     0  01:05      1.75    0.11    0.27
  C5                   CONDUIT     0.275     0  01:01      1.94    0.17    0.42
  C6                   CONDUIT     0.120     0  01:01      1.07    0.06    0.34
  C7                   CONDUIT     0.854     0  01:06      2.29    0.05    0.14
  C8                   CONDUIT     0.157     0  01:00      1.79    0.09    0.38
  C9                   CONDUIT     0.119     0  01:00      1.81    0.10    0.23
  C10                  CONDUIT     0.221     0  01:01      2.43    0.06    0.19
  C11                  CONDUIT     0.293     0  01:02      0.90    0.10    0.24
  C12                  CONDUIT     1.153     0  01:08      2.59    0.02    0.15
  C13                  CONDUIT     1.170     0  01:06      2.44    0.09    0.32
  C14                  CONDUIT     0.808     0  01:05      2.29    0.16    0.25
  C16                  CONDUIT     0.808     0  01:06      2.96    0.14    0.25
  C17                  CONDUIT     0.380     0  01:05      2.38    0.25    0.37
  C18                  CONDUIT     1.145     0  01:08      1.53    0.02    0.16
  C19                  CONDUIT     0.506     0  01:05      1.76    0.01    0.09
  C20                  CONDUIT     0.779     0  01:07      1.97    0.02    0.10
  C21                  CONDUIT     0.288     0  01:01      2.32    0.08    0.25
  C23                  CONDUIT     3.457     0  01:09      3.66    0.07    0.18
  C24                  CONDUIT     0.297     0  01:01      1.98    0.13    0.22
  C22                  CONDUIT     0.310     0  01:05      1.81    0.06    0.18
  
  
  ***************************
  Flow Classification Summary
  ***************************
  
  -------------------------------------------------------------------------------------
                      Adjusted    ---------- Fraction of Time in Flow Class ---------- 
                       /Actual         Up    Down  Sub   Sup   Up    Down  Norm  Inlet 
  Conduit               Length    Dry  Dry   Dry   Crit  Crit  Crit  Crit  Ltd   Ctrl  
  -------------------------------------------------------------------------------------
  C0                      1.00   0.00  0.00  0.00  0.04  0.96  0.00  0.00  1.00  0.00
  C1                      1.00   0.00  0.02  0.00  0.42  0.56  0.00  0.00  0.98  0.00
  C2                      1.00   0.00  0.03  0.00  0.97  0.00  0.00  0.00  0.97  0.00
  C3                      1.00   0.02  0.00  0.00  0.01  0.97  0.00  0.00  0.79  0.00
  C4                      1.00   0.00  0.00  0.00  0.28  0.72  0.00  0.00  1.00  0.00
  C5                      1.00   0.00  0.02  0.00  0.03  0.94  0.00  0.00  0.98  0.00
  C6                      1.00   0.02  0.00  0.00  0.95  0.03  0.00  0.00  0.98  0.00
  C7                      1.00   0.00  0.00  0.00  0.00  1.00  0.00  0.00  0.00  0.00
  C8                      1.00   0.00  0.02  0.00  0.85  0.13  0.00  0.00  0.98  0.00
  C9                      1.00   0.02  0.00  0.00  0.02  0.95  0.00  0.00  0.97  0.00
  C10                     1.00   0.02  0.00  0.00  0.01  0.97  0.00  0.00  0.93  0.00
  C11                     1.00   0.02  0.00  0.00  0.98  0.00  0.00  0.00  0.91  0.00
  C12                     1.00   0.00  0.00  0.00  0.88  0.12  0.00  0.00  0.99  0.00
  C13                     1.00   0.00  0.02  0.00  0.04  0.93  0.00  0.00  0.98  0.00
  C14                     1.00   0.02  0.00  0.00  0.03  0.95  0.00  0.00  0.39  0.00
  C16                     1.00   0.02  0.00  0.00  0.05  0.92  0.00  0.00  0.05  0.00
  C17                     1.00   0.02  0.00  0.00  0.02  0.96  0.00  0.00  0.90  0.00
  C18                     1.00   0.00  0.03  0.00  0.97  0.01  0.00  0.00  0.97  0.00
  C19                     1.00   0.02  0.00  0.00  0.04  0.94  0.00  0.00  0.97  0.00
  C20                     1.00   0.02  0.00  0.00  0.05  0.92  0.00  0.00  0.77  0.00
  C21                     1.00   0.02  0.00  0.00  0.01  0.96  0.00  0.00  0.94  0.00
  C23                     1.00   0.00  0.00  0.00  0.01  0.99  0.00  0.00  0.42  0.00
  C24                     1.00   0.02  0.00  0.00  0.02  0.95  0.00  0.00  0.00  0.00
  C22                     1.00   0.00  0.02  0.00  0.04  0.94  0.00  0.00  0.94  0.00
  
  
  *************************
  Conduit Surcharge Summary
  *************************
  
  No conduits were surcharged.
  
  
  ********************
  Subcatchment Results
  ********************
  
  <<< Subcatchment S1 >>>
  ---------------------------------------------------
  Date        Time        Precip.    Losses    Runoff
                            mm/hr     mm/hr       CMS
  ---------------------------------------------------
   08/03/2005 07:10:00      3.600     0.389    0.0000
   08/03/2005 07:15:00     30.000     3.031    0.0002
   08/03/2005 07:20:00     45.600     2.251    0.0138
   08/03/2005 07:25:00     24.000     0.960    0.0776
   08/03/2005 07:30:00     27.600     1.104    0.0943
   08/03/2005 07:35:00     13.200     0.528    0.1138
   08/03/2005 07:40:00     13.200     0.528    0.0963
   08/03/2005 07:45:00     15.600     0.624    0.0868
   08/03/2005 07:50:00     18.000     0.720    0.0862
   08/03/2005 07:55:00     13.200     0.528    0.0910
   08/03/2005 08:00:00     42.000     1.680    0.0848
   08/03/2005 08:05:00     20.400     0.816    0.1432
   08/03/2005 08:10:00     12.000     0.480    0.1316
   08/03/2005 08:15:00      1.200     0.048    0.1073
   08/03/2005 08:20:00      0.000     0.000    0.0728
   08/03/2005 08:25:00      1.200     0.048    0.0512
   08/03/2005 08:30:00     14.400     0.576    0.0397
   08/03/2005 08:35:00      3.600     0.144    0.0522
   08/03/2005 08:40:00      1.200     0.048    0.0439
   08/03/2005 08:45:00      0.000     0.000    0.0348
   08/03/2005 08:50:00      2.400     0.096    0.0269
   08/03/2005 08:55:00      3.600     0.144    0.0244
   08/03/2005 09:00:00     14.400     0.576    0.0240
   08/03/2005 09:05:00     20.400     0.816    0.0386
   08/03/2005 09:10:00      1.200     0.048    0.0615
   08/03/2005 09:15:00      0.000     0.000    0.0457
   08/03/2005 09:20:00      0.000     0.000    0.0340
   08/03/2005 09:25:00      0.000     0.000    0.0262
   08/03/2005 09:30:00      0.000     0.000    0.0209
   08/03/2005 09:35:00     10.800     0.432    0.0170
   08/03/2005 09:40:00     10.800     0.432    0.0268
   08/03/2005 09:45:00      7.200     0.288    0.0357
   08/03/2005 09:50:00     19.200     0.768    0.0374
   08/03/2005 09:55:00     19.200     0.768    0.0583
   08/03/2005 10:00:00     12.000     0.480    0.0748
   08/03/2005 10:05:00      8.400     0.336    0.0728
   08/03/2005 10:10:00      9.600     0.384    0.0650
   08/03/2005 10:15:00      6.000     0.240    0.0622
   08/03/2005 10:20:00      1.200     0.048    0.0541
   08/03/2005 10:25:00      2.400     0.096    0.0413
   08/03/2005 10:30:00      2.400     0.096    0.0346
   08/03/2005 10:35:00      3.600     0.144    0.0299
   08/03/2005 10:40:00      2.400     0.096    0.0281
   08/03/2005 10:45:00      3.600     0.144    0.0252
   08/03/2005 10:50:00      4.800     0.192    0.0245
   08/03/2005 10:55:00      2.400     0.096    0.0255
   08/03/2005 11:00:00      6.000     0.240    0.0232
   08/03/2005 11:05:00      2.400     0.096    0.0260
   08/03/2005 11:10:00      2.400     0.096    0.0235
  
  
  <<< Subcatchment S2 >>>
  ---------------------------------------------------
  Date        Time        Precip.    Losses    Runoff
                            mm/hr     mm/hr       CMS
  ---------------------------------------------------
   08/03/2005 07:10:00      3.600     0.973    0.0000
   08/03/2005 07:15:00     30.000     7.576    0.0000
   08/03/2005 07:20:00     45.600     5.626    0.0144
   08/03/2005 07:25:00     24.000     2.400    0.0887
   08/03/2005 07:30:00     27.600     2.760    0.1249
   08/03/2005 07:35:00     13.200     1.320    0.1665
   08/03/2005 07:40:00     13.200     1.320    0.1600
   08/03/2005 07:45:00     15.600     1.560    0.1559
   08/03/2005 07:50:00     18.000     1.800    0.1600
   08/03/2005 07:55:00     13.200     1.320    0.1705
   08/03/2005 08:00:00     42.000     4.200    0.1657
   08/03/2005 08:05:00     20.400     2.040    0.2493
   08/03/2005 08:10:00     12.000     1.200    0.2463
   08/03/2005 08:15:00      1.200     0.120    0.2193
   08/03/2005 08:20:00      0.000     0.000    0.1705
   08/03/2005 08:25:00      1.200     0.120    0.1348
   08/03/2005 08:30:00     14.400     1.440    0.1127
   08/03/2005 08:35:00      3.600     0.360    0.1279
   08/03/2005 08:40:00      1.200     0.120    0.1139
   08/03/2005 08:45:00      0.000     0.000    0.0982
   08/03/2005 08:50:00      2.400     0.240    0.0838
   08/03/2005 08:55:00      3.600     0.360    0.0776
   08/03/2005 09:00:00     14.400     1.440    0.0751
   08/03/2005 09:05:00     20.400     2.040    0.0954
   08/03/2005 09:10:00      1.200     0.120    0.1284
   08/03/2005 09:15:00      0.000     0.000    0.1099
   08/03/2005 09:20:00      0.000     0.000    0.0936
   08/03/2005 09:25:00      0.000     0.000    0.0813
   08/03/2005 09:30:00      0.000     0.000    0.0717
   08/03/2005 09:35:00     10.800     1.080    0.0641
   08/03/2005 09:40:00     10.800     1.080    0.0778
   08/03/2005 09:45:00      7.200     0.720    0.0905
   08/03/2005 09:50:00     19.200     1.920    0.0939
   08/03/2005 09:55:00     19.200     1.920    0.1244
   08/03/2005 10:00:00     12.000     1.200    0.1520
   08/03/2005 10:05:00      8.400     0.840    0.1560
   08/03/2005 10:10:00      9.600     0.960    0.1501
   08/03/2005 10:15:00      6.000     0.600    0.1489
   08/03/2005 10:20:00      1.200     0.120    0.1391
   08/03/2005 10:25:00      2.400     0.240    0.1204
   08/03/2005 10:30:00      2.400     0.240    0.1090
   08/03/2005 10:35:00      3.600     0.360    0.1002
   08/03/2005 10:40:00      2.400     0.240    0.0957
   08/03/2005 10:45:00      3.600     0.360    0.0896
   08/03/2005 10:50:00      4.800     0.480    0.0870
   08/03/2005 10:55:00      2.400     0.240    0.0872
   08/03/2005 11:00:00      6.000     0.600    0.0827
   08/03/2005 11:05:00      2.400     0.240    0.0858
   08/03/2005 11:10:00      2.400     0.240    0.0815
  
  
  <<< Subcatchment S3 >>>
  ---------------------------------------------------
  Date        Time        Precip.    Losses    Runoff
                            mm/hr     mm/hr       CMS
  ---------------------------------------------------
   08/03/2005 07:10:00      3.600     1.362    0.0000
   08/03/2005 07:15:00     30.000    10.607    0.0002
   08/03/2005 07:20:00     45.600     7.877    0.0111
   08/03/2005 07:25:00     24.000     3.360    0.0440
   08/03/2005 07:30:00     27.600     3.864    0.0354
   08/03/2005 07:35:00     13.200     1.848    0.0386
   08/03/2005 07:40:00     13.200     1.848    0.0273
   08/03/2005 07:45:00     15.600     2.184    0.0250
   08/03/2005 07:50:00     18.000     2.520    0.0275
   08/03/2005 07:55:00     13.200     1.848    0.0319
   08/03/2005 08:00:00     42.000     5.880    0.0301
   08/03/2005 08:05:00     20.400     2.856    0.0618
   08/03/2005 08:10:00     12.000     1.680    0.0512
   08/03/2005 08:15:00      1.200     0.168    0.0413
   08/03/2005 08:20:00      0.000     0.000    0.0287
   08/03/2005 08:25:00      1.200     0.168    0.0227
   08/03/2005 08:30:00     14.400     2.016    0.0202
   08/03/2005 08:35:00      3.600     0.504    0.0291
   08/03/2005 08:40:00      1.200     0.168    0.0250
   08/03/2005 08:45:00      0.000     0.000    0.0210
   08/03/2005 08:50:00      2.400     0.336    0.0178
   08/03/2005 08:55:00      3.600     0.504    0.0173
   08/03/2005 09:00:00     14.400     2.016    0.0175
   08/03/2005 09:05:00     20.400     2.856    0.0265
   08/03/2005 09:10:00      1.200     0.168    0.0383
   08/03/2005 09:15:00      0.000     0.000    0.0260
   08/03/2005 09:20:00      0.000     0.000    0.0202
   08/03/2005 09:25:00      0.000     0.000    0.0172
   08/03/2005 09:30:00      0.000     0.000    0.0152
   08/03/2005 09:35:00     10.800     1.512    0.0137
   08/03/2005 09:40:00     10.800     1.512    0.0198
   08/03/2005 09:45:00      7.200     1.008    0.0245
   08/03/2005 09:50:00     19.200     2.688    0.0242
   08/03/2005 09:55:00     19.200     2.688    0.0354
   08/03/2005 10:00:00     12.000     1.680    0.0416
   08/03/2005 10:05:00      8.400     1.176    0.0377
   08/03/2005 10:10:00      9.600     1.344    0.0333
   08/03/2005 10:15:00      6.000     0.840    0.0329
   08/03/2005 10:20:00      1.200     0.168    0.0295
   08/03/2005 10:25:00      2.400     0.336    0.0239
   08/03/2005 10:30:00      2.400     0.336    0.0218
   08/03/2005 10:35:00      3.600     0.504    0.0203
   08/03/2005 10:40:00      2.400     0.336    0.0200
   08/03/2005 10:45:00      3.600     0.504    0.0188
   08/03/2005 10:50:00      4.800     0.672    0.0187
   08/03/2005 10:55:00      2.400     0.336    0.0194
   08/03/2005 11:00:00      6.000     0.840    0.0179
   08/03/2005 11:05:00      2.400     0.336    0.0195
   08/03/2005 11:10:00      2.400     0.336    0.0177
  
  
  <<< Subcatchment S4 >>>
  ---------------------------------------------------
  Date        Time        Precip.    Losses    Runoff
                            mm/hr     mm/hr       CMS
  ---------------------------------------------------
   08/03/2005 07:10:00      3.600     1.557    0.0000
   08/03/2005 07:15:00     30.000    12.122    0.0000
   08/03/2005 07:20:00     45.600     9.002    0.0133
   08/03/2005 07:25:00     24.000     3.840    0.0700
   08/03/2005 07:30:00     27.600     4.416    0.0772
   08/03/2005 07:35:00     13.200     2.112    0.0890
   08/03/2005 07:40:00     13.200     2.112    0.0711
   08/03/2005 07:45:00     15.600     2.496    0.0633
   08/03/2005 07:50:00     18.000     2.880    0.0641
   08/03/2005 07:55:00     13.200     2.112    0.0698
   08/03/2005 08:00:00     42.000     6.720    0.0661
   08/03/2005 08:05:00     20.400     3.264    0.1186
   08/03/2005 08:10:00     12.000     1.920    0.1087
   08/03/2005 08:15:00      1.200     0.192    0.0907
   08/03/2005 08:20:00      0.000     0.000    0.0651
   08/03/2005 08:25:00      1.200     0.192    0.0506
   08/03/2005 08:30:00     14.400     2.304    0.0439
   08/03/2005 08:35:00      3.600     0.576    0.0575
   08/03/2005 08:40:00      1.200     0.192    0.0522
   08/03/2005 08:45:00      0.000     0.000    0.0458
   08/03/2005 08:50:00      2.400     0.384    0.0404
   08/03/2005 08:55:00      3.600     0.576    0.0393
   08/03/2005 09:00:00     14.400     2.304    0.0400
   08/03/2005 09:05:00     20.400     3.264    0.0545
   08/03/2005 09:10:00      1.200     0.192    0.0766
   08/03/2005 09:15:00      0.000     0.000    0.0621
   08/03/2005 09:20:00      0.000     0.000    0.0524
   08/03/2005 09:25:00      0.000     0.000    0.0463
   08/03/2005 09:30:00      0.000     0.000    0.0422
   08/03/2005 09:35:00     10.800     1.728    0.0393
   08/03/2005 09:40:00     10.800     1.728    0.0492
   08/03/2005 09:45:00      7.200     1.152    0.0581
   08/03/2005 09:50:00     19.200     3.072    0.0600
   08/03/2005 09:55:00     19.200     3.072    0.0803
   08/03/2005 10:00:00     12.000     1.920    0.0958
   08/03/2005 10:05:00      8.400     1.344    0.0941
   08/03/2005 10:10:00      9.600     1.536    0.0881
   08/03/2005 10:15:00      6.000     0.960    0.0871
   08/03/2005 10:20:00      1.200     0.192    0.0814
   08/03/2005 10:25:00      2.400     0.384    0.0711
   08/03/2005 10:30:00      2.400     0.384    0.0663
   08/03/2005 10:35:00      3.600     0.576    0.0631
   08/03/2005 10:40:00      2.400     0.384    0.0622
   08/03/2005 10:45:00      3.600     0.576    0.0601
   08/03/2005 10:50:00      4.800     0.768    0.0599
   08/03/2005 10:55:00      2.400     0.384    0.0612
   08/03/2005 11:00:00      6.000     0.960    0.0592
   08/03/2005 11:05:00      2.400     0.384    0.0621
   08/03/2005 11:10:00      2.400     0.384    0.0598
  
  
  <<< Subcatchment S5 >>>
  ---------------------------------------------------
  Date        Time        Precip.    Losses    Runoff
                            mm/hr     mm/hr       CMS
  ---------------------------------------------------
   08/03/2005 07:10:00      3.600     1.557    0.0000
   08/03/2005 07:15:00     30.000    12.122    0.0000
   08/03/2005 07:20:00     45.600     9.002    0.0138
   08/03/2005 07:25:00     24.000     3.840    0.0785
   08/03/2005 07:30:00     27.600     4.416    0.0966
   08/03/2005 07:35:00     13.200     2.112    0.1177
   08/03/2005 07:40:00     13.200     2.112    0.1010
   08/03/2005 07:45:00     15.600     2.496    0.0921
   08/03/2005 07:50:00     18.000     2.880    0.0925
   08/03/2005 07:55:00     13.200     2.112    0.0987
   08/03/2005 08:00:00     42.000     6.720    0.0938
   08/03/2005 08:05:00     20.400     3.264    0.1565
   08/03/2005 08:10:00     12.000     1.920    0.1482
   08/03/2005 08:15:00      1.200     0.192    0.1263
   08/03/2005 08:20:00      0.000     0.000    0.0928
   08/03/2005 08:25:00      1.200     0.192    0.0717
   08/03/2005 08:30:00     14.400     2.304    0.0608
   08/03/2005 08:35:00      3.600     0.576    0.0757
   08/03/2005 08:40:00      1.200     0.192    0.0684
   08/03/2005 08:45:00      0.000     0.000    0.0598
   08/03/2005 08:50:00      2.400     0.384    0.0522
   08/03/2005 08:55:00      3.600     0.576    0.0501
   08/03/2005 09:00:00     14.400     2.304    0.0504
   08/03/2005 09:05:00     20.400     3.264    0.0673
   08/03/2005 09:10:00      1.200     0.192    0.0937
   08/03/2005 09:15:00      0.000     0.000    0.0785
   08/03/2005 09:20:00      0.000     0.000    0.0669
   08/03/2005 09:25:00      0.000     0.000    0.0591
   08/03/2005 09:30:00      0.000     0.000    0.0536
   08/03/2005 09:35:00     10.800     1.728    0.0495
   08/03/2005 09:40:00     10.800     1.728    0.0611
   08/03/2005 09:45:00      7.200     1.152    0.0718
   08/03/2005 09:50:00     19.200     3.072    0.0747
   08/03/2005 09:55:00     19.200     3.072    0.0990
   08/03/2005 10:00:00     12.000     1.920    0.1193
   08/03/2005 10:05:00      8.400     1.344    0.1199
   08/03/2005 10:10:00      9.600     1.536    0.1138
   08/03/2005 10:15:00      6.000     0.960    0.1128
   08/03/2005 10:20:00      1.200     0.192    0.1059
   08/03/2005 10:25:00      2.400     0.384    0.0930
   08/03/2005 10:30:00      2.400     0.384    0.0864
   08/03/2005 10:35:00      3.600     0.576    0.0818
   08/03/2005 10:40:00      2.400     0.384    0.0802
   08/03/2005 10:45:00      3.600     0.576    0.0773
   08/03/2005 10:50:00      4.800     0.768    0.0769
   08/03/2005 10:55:00      2.400     0.384    0.0783
   08/03/2005 11:00:00      6.000     0.960    0.0759
   08/03/2005 11:05:00      2.400     0.384    0.0794
   08/03/2005 11:10:00      2.400     0.384    0.0769
  
  
  <<< Subcatchment S6 >>>
  ---------------------------------------------------
  Date        Time        Precip.    Losses    Runoff
                            mm/hr     mm/hr       CMS
  ---------------------------------------------------
   08/03/2005 07:10:00      3.600     0.778    0.0000
   08/03/2005 07:15:00     30.000     6.061    0.0000
   08/03/2005 07:20:00     45.600     4.501    0.0145
   08/03/2005 07:25:00     24.000     1.920    0.0903
   08/03/2005 07:30:00     27.600     2.208    0.1299
   08/03/2005 07:35:00     13.200     1.056    0.1762
   08/03/2005 07:40:00     13.200     1.056    0.1730
   08/03/2005 07:45:00     15.600     1.248    0.1712
   08/03/2005 07:50:00     18.000     1.440    0.1772
   08/03/2005 07:55:00     13.200     1.056    0.1896
   08/03/2005 08:00:00     42.000     3.360    0.1855
   08/03/2005 08:05:00     20.400     1.632    0.2745
   08/03/2005 08:10:00     12.000     0.960    0.2736
   08/03/2005 08:15:00      1.200     0.096    0.2461
   08/03/2005 08:20:00      0.000     0.000    0.1942
   08/03/2005 08:25:00      1.200     0.096    0.1549
   08/03/2005 08:30:00     14.400     1.152    0.1299
   08/03/2005 08:35:00      3.600     0.288    0.1449
   08/03/2005 08:40:00      1.200     0.096    0.1290
   08/03/2005 08:45:00      0.000     0.000    0.1111
   08/03/2005 08:50:00      2.400     0.192    0.0948
   08/03/2005 08:55:00      3.600     0.288    0.0872
   08/03/2005 09:00:00     14.400     1.152    0.0836
   08/03/2005 09:05:00     20.400     1.632    0.1046
   08/03/2005 09:10:00      1.200     0.096    0.1390
   08/03/2005 09:15:00      0.000     0.000    0.1195
   08/03/2005 09:20:00      0.000     0.000    0.1018
   08/03/2005 09:25:00      0.000     0.000    0.0882
   08/03/2005 09:30:00      0.000     0.000    0.0774
   08/03/2005 09:35:00     10.800     0.864    0.0687
   08/03/2005 09:40:00     10.800     0.864    0.0828
   08/03/2005 09:45:00      7.200     0.576    0.0959
   08/03/2005 09:50:00     19.200     1.536    0.0993
   08/03/2005 09:55:00     19.200     1.536    0.1312
   08/03/2005 10:00:00     12.000     0.960    0.1603
   08/03/2005 10:05:00      8.400     0.672    0.1651
   08/03/2005 10:10:00      9.600     0.768    0.1593
   08/03/2005 10:15:00      6.000     0.480    0.1581
   08/03/2005 10:20:00      1.200     0.096    0.1478
   08/03/2005 10:25:00      2.400     0.192    0.1278
   08/03/2005 10:30:00      2.400     0.192    0.1152
   08/03/2005 10:35:00      3.600     0.288    0.1053
   08/03/2005 10:40:00      2.400     0.192    0.1000
   08/03/2005 10:45:00      3.600     0.288    0.0931
   08/03/2005 10:50:00      4.800     0.384    0.0899
   08/03/2005 10:55:00      2.400     0.192    0.0897
   08/03/2005 11:00:00      6.000     0.480    0.0845
   08/03/2005 11:05:00      2.400     0.192    0.0875
   08/03/2005 11:10:00      2.400     0.192    0.0827
  
  
  <<< Subcatchment S7 >>>
  ---------------------------------------------------
  Date        Time        Precip.    Losses    Runoff
                            mm/hr     mm/hr       CMS
  ---------------------------------------------------
   08/03/2005 07:10:00      3.600     1.168    0.0000
   08/03/2005 07:15:00     30.000     9.092    0.0000
   08/03/2005 07:20:00     45.600     6.752    0.0134
   08/03/2005 07:25:00     24.000     2.880    0.0714
   08/03/2005 07:30:00     27.600     3.312    0.0801
   08/03/2005 07:35:00     13.200     1.584    0.0930
   08/03/2005 07:40:00     13.200     1.584    0.0750
   08/03/2005 07:45:00     15.600     1.872    0.0668
   08/03/2005 07:50:00     18.000     2.160    0.0673
   08/03/2005 07:55:00     13.200     1.584    0.0727
   08/03/2005 08:00:00     42.000     5.040    0.0685
   08/03/2005 08:05:00     20.400     2.448    0.1218
   08/03/2005 08:10:00     12.000     1.440    0.1114
   08/03/2005 08:15:00      1.200     0.144    0.0920
   08/03/2005 08:20:00      0.000     0.000    0.0646
   08/03/2005 08:25:00      1.200     0.144    0.0486
   08/03/2005 08:30:00     14.400     1.728    0.0408
   08/03/2005 08:35:00      3.600     0.432    0.0538
   08/03/2005 08:40:00      1.200     0.144    0.0476
   08/03/2005 08:45:00      0.000     0.000    0.0405
   08/03/2005 08:50:00      2.400     0.288    0.0343
   08/03/2005 08:55:00      3.600     0.432    0.0327
   08/03/2005 09:00:00     14.400     1.728    0.0328
   08/03/2005 09:05:00     20.400     2.448    0.0468
   08/03/2005 09:10:00      1.200     0.144    0.0684
   08/03/2005 09:15:00      0.000     0.000    0.0533
   08/03/2005 09:20:00      0.000     0.000    0.0428
   08/03/2005 09:25:00      0.000     0.000    0.0361
   08/03/2005 09:30:00      0.000     0.000    0.0316
   08/03/2005 09:35:00     10.800     1.296    0.0282
   08/03/2005 09:40:00     10.800     1.296    0.0376
   08/03/2005 09:45:00      7.200     0.864    0.0460
   08/03/2005 09:50:00     19.200     2.304    0.0474
   08/03/2005 09:55:00     19.200     2.304    0.0670
   08/03/2005 10:00:00     12.000     1.440    0.0819
   08/03/2005 10:05:00      8.400     1.008    0.0795
   08/03/2005 10:10:00      9.600     1.152    0.0725
   08/03/2005 10:15:00      6.000     0.720    0.0705
   08/03/2005 10:20:00      1.200     0.144    0.0639
   08/03/2005 10:25:00      2.400     0.288    0.0528
   08/03/2005 10:30:00      2.400     0.288    0.0473
   08/03/2005 10:35:00      3.600     0.432    0.0435
   08/03/2005 10:40:00      2.400     0.288    0.0422
   08/03/2005 10:45:00      3.600     0.432    0.0396
   08/03/2005 10:50:00      4.800     0.576    0.0390
   08/03/2005 10:55:00      2.400     0.288    0.0400
   08/03/2005 11:00:00      6.000     0.720    0.0377
   08/03/2005 11:05:00      2.400     0.288    0.0402
   08/03/2005 11:10:00      2.400     0.288    0.0377
  
  
  <<< Subcatchment S8 >>>
  ---------------------------------------------------
  Date        Time        Precip.    Losses    Runoff
                            mm/hr     mm/hr       CMS
  ---------------------------------------------------
   08/03/2005 07:10:00      3.600     0.584    0.0000
   08/03/2005 07:15:00     30.000     4.546    0.0000
   08/03/2005 07:20:00     45.600     3.376    0.0147
   08/03/2005 07:25:00     24.000     1.440    0.0952
   08/03/2005 07:30:00     27.600     1.656    0.1462
   08/03/2005 07:35:00     13.200     0.792    0.2097
   08/03/2005 07:40:00     13.200     0.792    0.2215
   08/03/2005 07:45:00     15.600     0.936    0.2320
   08/03/2005 07:50:00     18.000     1.080    0.2497
   08/03/2005 07:55:00     13.200     0.792    0.2739
   08/03/2005 08:00:00     42.000     2.520    0.2778
   08/03/2005 08:05:00     20.400     1.224    0.3935
   08/03/2005 08:10:00     12.000     0.720    0.4068
   08/03/2005 08:15:00      1.200     0.072    0.3837
   08/03/2005 08:20:00      0.000     0.000    0.3235
   08/03/2005 08:25:00      1.200     0.072    0.2726
   08/03/2005 08:30:00     14.400     0.864    0.2370
   08/03/2005 08:35:00      3.600     0.216    0.2529
   08/03/2005 08:40:00      1.200     0.072    0.2295
   08/03/2005 08:45:00      0.000     0.000    0.2028
   08/03/2005 08:50:00      2.400     0.144    0.1774
   08/03/2005 08:55:00      3.600     0.216    0.1635
   08/03/2005 09:00:00     14.400     0.864    0.1553
   08/03/2005 09:05:00     20.400     1.224    0.1801
   08/03/2005 09:10:00      1.200     0.072    0.2225
   08/03/2005 09:15:00      0.000     0.000    0.1978
   08/03/2005 09:20:00      0.000     0.000    0.1739
   08/03/2005 09:25:00      0.000     0.000    0.1542
   08/03/2005 09:30:00      0.000     0.000    0.1378
   08/03/2005 09:35:00     10.800     0.648    0.1240
   08/03/2005 09:40:00     10.800     0.648    0.1407
   08/03/2005 09:45:00      7.200     0.432    0.1562
   08/03/2005 09:50:00     19.200     1.152    0.1599
   08/03/2005 09:55:00     19.200     1.152    0.1996
   08/03/2005 10:00:00     12.000     0.720    0.2372
   08/03/2005 10:05:00      8.400     0.504    0.2465
   08/03/2005 10:10:00      9.600     0.576    0.2424
   08/03/2005 10:15:00      6.000     0.360    0.2431
   08/03/2005 10:20:00      1.200     0.072    0.2317
   08/03/2005 10:25:00      2.400     0.144    0.2067
   08/03/2005 10:30:00      2.400     0.144    0.1898
   08/03/2005 10:35:00      3.600     0.216    0.1756
   08/03/2005 10:40:00      2.400     0.144    0.1671
   08/03/2005 10:45:00      3.600     0.216    0.1564
   08/03/2005 10:50:00      4.800     0.288    0.1506
   08/03/2005 10:55:00      2.400     0.144    0.1488
   08/03/2005 11:00:00      6.000     0.360    0.1407
   08/03/2005 11:05:00      2.400     0.144    0.1433
   08/03/2005 11:10:00      2.400     0.144    0.1359
  
  
  <<< Subcatchment S9 >>>
  ---------------------------------------------------
  Date        Time        Precip.    Losses    Runoff
                            mm/hr     mm/hr       CMS
  ---------------------------------------------------
   08/03/2005 07:10:00      3.600     1.362    0.0000
   08/03/2005 07:15:00     30.000    10.607    0.0000
   08/03/2005 07:20:00     45.600     7.877    0.0146
   08/03/2005 07:25:00     24.000     3.360    0.0920
   08/03/2005 07:30:00     27.600     3.864    0.1351
   08/03/2005 07:35:00     13.200     1.848    0.1866
   08/03/2005 07:40:00     13.200     1.848    0.1876
   08/03/2005 07:45:00     15.600     2.184    0.1888
   08/03/2005 07:50:00     18.000     2.520    0.1977
   08/03/2005 07:55:00     13.200     1.848    0.2130
   08/03/2005 08:00:00     42.000     5.880    0.2107
   08/03/2005 08:05:00     20.400     2.856    0.3072
   08/03/2005 08:10:00     12.000     1.680    0.3100
   08/03/2005 08:15:00      1.200     0.168    0.2836
   08/03/2005 08:20:00      0.000     0.000    0.2292
   08/03/2005 08:25:00      1.200     0.168    0.1869
   08/03/2005 08:30:00     14.400     2.016    0.1593
   08/03/2005 08:35:00      3.600     0.504    0.1752
   08/03/2005 08:40:00      1.200     0.168    0.1580
   08/03/2005 08:45:00      0.000     0.000    0.1383
   08/03/2005 08:50:00      2.400     0.336    0.1202
   08/03/2005 08:55:00      3.600     0.504    0.1116
   08/03/2005 09:00:00     14.400     2.016    0.1076
   08/03/2005 09:05:00     20.400     2.856    0.1306
   08/03/2005 09:10:00      1.200     0.168    0.1683
   08/03/2005 09:15:00      0.000     0.000    0.1483
   08/03/2005 09:20:00      0.000     0.000    0.1297
   08/03/2005 09:25:00      0.000     0.000    0.1152
   08/03/2005 09:30:00      0.000     0.000    0.1036
   08/03/2005 09:35:00     10.800     1.512    0.0942
   08/03/2005 09:40:00     10.800     1.512    0.1100
   08/03/2005 09:45:00      7.200     1.008    0.1248
   08/03/2005 09:50:00     19.200     2.688    0.1292
   08/03/2005 09:55:00     19.200     2.688    0.1647
   08/03/2005 10:00:00     12.000     1.680    0.1977
   08/03/2005 10:05:00      8.400     1.176    0.2052
   08/03/2005 10:10:00      9.600     1.344    0.2011
   08/03/2005 10:15:00      6.000     0.840    0.2018
   08/03/2005 10:20:00      1.200     0.168    0.1923
   08/03/2005 10:25:00      2.400     0.336    0.1718
   08/03/2005 10:30:00      2.400     0.336    0.1590
   08/03/2005 10:35:00      3.600     0.504    0.1488
   08/03/2005 10:40:00      2.400     0.336    0.1435
   08/03/2005 10:45:00      3.600     0.504    0.1364
   08/03/2005 10:50:00      4.800     0.672    0.1333
   08/03/2005 10:55:00      2.400     0.336    0.1337
   08/03/2005 11:00:00      6.000     0.840    0.1285
   08/03/2005 11:05:00      2.400     0.336    0.1324
   08/03/2005 11:10:00      2.400     0.336    0.1275
  
  
  <<< Subcatchment S10 >>>
  ---------------------------------------------------
  Date        Time        Precip.    Losses    Runoff
                            mm/hr     mm/hr       CMS
  ---------------------------------------------------
   08/03/2005 07:10:00      3.600     1.168    0.0000
   08/03/2005 07:15:00     30.000     9.092    0.0000
   08/03/2005 07:20:00     45.600     6.752    0.0131
   08/03/2005 07:25:00     24.000     2.880    0.0671
   08/03/2005 07:30:00     27.600     3.312    0.0713
   08/03/2005 07:35:00     13.200     1.584    0.0810
   08/03/2005 07:40:00     13.200     1.584    0.0633
   08/03/2005 07:45:00     15.600     1.872    0.0560
   08/03/2005 07:50:00     18.000     2.160    0.0569
   08/03/2005 07:55:00     13.200     1.584    0.0622
   08/03/2005 08:00:00     42.000     5.040    0.0585
   08/03/2005 08:05:00     20.400     2.448    0.1074
   08/03/2005 08:10:00     12.000     1.440    0.0964
   08/03/2005 08:15:00      1.200     0.144    0.0787
   08/03/2005 08:20:00      0.000     0.000    0.0545
   08/03/2005 08:25:00      1.200     0.144    0.0410
   08/03/2005 08:30:00     14.400     1.728    0.0346
   08/03/2005 08:35:00      3.600     0.432    0.0469
   08/03/2005 08:40:00      1.200     0.144    0.0413
   08/03/2005 08:45:00      0.000     0.000    0.0349
   08/03/2005 08:50:00      2.400     0.288    0.0295
   08/03/2005 08:55:00      3.600     0.432    0.0281
   08/03/2005 09:00:00     14.400     1.728    0.0283
   08/03/2005 09:05:00     20.400     2.448    0.0413
   08/03/2005 09:10:00      1.200     0.144    0.0609
   08/03/2005 09:15:00      0.000     0.000    0.0461
   08/03/2005 09:20:00      0.000     0.000    0.0365
   08/03/2005 09:25:00      0.000     0.000    0.0306
   08/03/2005 09:30:00      0.000     0.000    0.0266
   08/03/2005 09:35:00     10.800     1.296    0.0237
   08/03/2005 09:40:00     10.800     1.296    0.0324
   08/03/2005 09:45:00      7.200     0.864    0.0400
   08/03/2005 09:50:00     19.200     2.304    0.0411
   08/03/2005 09:55:00     19.200     2.304    0.0589
   08/03/2005 10:00:00     12.000     1.440    0.0718
   08/03/2005 10:05:00      8.400     1.008    0.0686
   08/03/2005 10:10:00      9.600     1.152    0.0619
   08/03/2005 10:15:00      6.000     0.720    0.0601
   08/03/2005 10:20:00      1.200     0.144    0.0541
   08/03/2005 10:25:00      2.400     0.288    0.0442
   08/03/2005 10:30:00      2.400     0.288    0.0395
   08/03/2005 10:35:00      3.600     0.432    0.0363
   08/03/2005 10:40:00      2.400     0.288    0.0353
   08/03/2005 10:45:00      3.600     0.432    0.0331
   08/03/2005 10:50:00      4.800     0.576    0.0327
   08/03/2005 10:55:00      2.400     0.288    0.0336
   08/03/2005 11:00:00      6.000     0.720    0.0315
   08/03/2005 11:05:00      2.400     0.288    0.0339
   08/03/2005 11:10:00      2.400     0.288    0.0315
  
  
  <<< Subcatchment S11 >>>
  ---------------------------------------------------
  Date        Time        Precip.    Losses    Runoff
                            mm/hr     mm/hr       CMS
  ---------------------------------------------------
   08/03/2005 07:10:00      3.600     1.168    0.0000
   08/03/2005 07:15:00     30.000     9.092    0.0000
   08/03/2005 07:20:00     45.600     6.752    0.0244
   08/03/2005 07:25:00     24.000     2.880    0.1416
   08/03/2005 07:30:00     27.600     3.312    0.1798
   08/03/2005 07:35:00     13.200     1.584    0.2231
   08/03/2005 07:40:00     13.200     1.584    0.1959
   08/03/2005 07:45:00     15.600     1.872    0.1806
   08/03/2005 07:50:00     18.000     2.160    0.1814
   08/03/2005 07:55:00     13.200     1.584    0.1927
   08/03/2005 08:00:00     42.000     5.040    0.1833
   08/03/2005 08:05:00     20.400     2.448    0.2988
   08/03/2005 08:10:00     12.000     1.440    0.2846
   08/03/2005 08:15:00      1.200     0.144    0.2433
   08/03/2005 08:20:00      0.000     0.000    0.1788
   08/03/2005 08:25:00      1.200     0.144    0.1367
   08/03/2005 08:30:00     14.400     1.728    0.1137
   08/03/2005 08:35:00      3.600     0.432    0.1393
   08/03/2005 08:40:00      1.200     0.144    0.1239
   08/03/2005 08:45:00      0.000     0.000    0.1063
   08/03/2005 08:50:00      2.400     0.288    0.0906
   08/03/2005 08:55:00      3.600     0.432    0.0854
   08/03/2005 09:00:00     14.400     1.728    0.0845
   08/03/2005 09:05:00     20.400     2.448    0.1143
   08/03/2005 09:10:00      1.200     0.144    0.1614
   08/03/2005 09:15:00      0.000     0.000    0.1332
   08/03/2005 09:20:00      0.000     0.000    0.1109
   08/03/2005 09:25:00      0.000     0.000    0.0954
   08/03/2005 09:30:00      0.000     0.000    0.0841
   08/03/2005 09:35:00     10.800     1.296    0.0755
   08/03/2005 09:40:00     10.800     1.296    0.0956
   08/03/2005 09:45:00      7.200     0.864    0.1139
   08/03/2005 09:50:00     19.200     2.304    0.1184
   08/03/2005 09:55:00     19.200     2.304    0.1615
   08/03/2005 10:00:00     12.000     1.440    0.1977
   08/03/2005 10:05:00      8.400     1.008    0.1983
   08/03/2005 10:10:00      9.600     1.152    0.1864
   08/03/2005 10:15:00      6.000     0.720    0.1831
   08/03/2005 10:20:00      1.200     0.144    0.1688
   08/03/2005 10:25:00      2.400     0.288    0.1434
   08/03/2005 10:30:00      2.400     0.288    0.1296
   08/03/2005 10:35:00      3.600     0.432    0.1195
   08/03/2005 10:40:00      2.400     0.288    0.1152
   08/03/2005 10:45:00      3.600     0.432    0.1085
   08/03/2005 10:50:00      4.800     0.576    0.1064
   08/03/2005 10:55:00      2.400     0.288    0.1079
   08/03/2005 11:00:00      6.000     0.720    0.1026
   08/03/2005 11:05:00      2.400     0.288    0.1079
   08/03/2005 11:10:00      2.400     0.288    0.1024
  
  
  <<< Subcatchment S12 >>>
  ---------------------------------------------------
  Date        Time        Precip.    Losses    Runoff
                            mm/hr     mm/hr       CMS
  ---------------------------------------------------
   08/03/2005 07:10:00      3.600     0.778    0.0000
   08/03/2005 07:15:00     30.000     6.061    0.0000
   08/03/2005 07:20:00     45.600     4.501    0.0147
   08/03/2005 07:25:00     24.000     1.920    0.0941
   08/03/2005 07:30:00     27.600     2.208    0.1423
   08/03/2005 07:35:00     13.200     1.056    0.2013
   08/03/2005 07:40:00     13.200     1.056    0.2088
   08/03/2005 07:45:00     15.600     1.248    0.2155
   08/03/2005 07:50:00     18.000     1.440    0.2294
   08/03/2005 07:55:00     13.200     1.056    0.2498
   08/03/2005 08:00:00     42.000     3.360    0.2508
   08/03/2005 08:05:00     20.400     1.632    0.3586
   08/03/2005 08:10:00     12.000     0.960    0.3672
   08/03/2005 08:15:00      1.200     0.096    0.3421
   08/03/2005 08:20:00      0.000     0.000    0.2836
   08/03/2005 08:25:00      1.200     0.096    0.2357
   08/03/2005 08:30:00     14.400     1.152    0.2029
   08/03/2005 08:35:00      3.600     0.288    0.2186
   08/03/2005 08:40:00      1.200     0.096    0.1975
   08/03/2005 08:45:00      0.000     0.000    0.1735
   08/03/2005 08:50:00      2.400     0.192    0.1509
   08/03/2005 08:55:00      3.600     0.288    0.1392
   08/03/2005 09:00:00     14.400     1.152    0.1326
   08/03/2005 09:05:00     20.400     1.632    0.1566
   08/03/2005 09:10:00      1.200     0.096    0.1969
   08/03/2005 09:15:00      0.000     0.000    0.1741
   08/03/2005 09:20:00      0.000     0.000    0.1523
   08/03/2005 09:25:00      0.000     0.000    0.1347
   08/03/2005 09:30:00      0.000     0.000    0.1202
   08/03/2005 09:35:00     10.800     0.864    0.1082
   08/03/2005 09:40:00     10.800     0.864    0.1244
   08/03/2005 09:45:00      7.200     0.576    0.1394
   08/03/2005 09:50:00     19.200     1.536    0.1433
   08/03/2005 09:55:00     19.200     1.536    0.1812
   08/03/2005 10:00:00     12.000     0.960    0.2166
   08/03/2005 10:05:00      8.400     0.672    0.2250
   08/03/2005 10:10:00      9.600     0.768    0.2207
   08/03/2005 10:15:00      6.000     0.480    0.2212
   08/03/2005 10:20:00      1.200     0.096    0.2103
   08/03/2005 10:25:00      2.400     0.192    0.1869
   08/03/2005 10:30:00      2.400     0.192    0.1715
   08/03/2005 10:35:00      3.600     0.288    0.1588
   08/03/2005 10:40:00      2.400     0.192    0.1514
   08/03/2005 10:45:00      3.600     0.288    0.1420
   08/03/2005 10:50:00      4.800     0.384    0.1371
   08/03/2005 10:55:00      2.400     0.192    0.1361
   08/03/2005 11:00:00      6.000     0.480    0.1290
   08/03/2005 11:05:00      2.400     0.192    0.1320
   08/03/2005 11:10:00      2.400     0.192    0.1255
  
  
  <<< Subcatchment S13 >>>
  ---------------------------------------------------
  Date        Time        Precip.    Losses    Runoff
                            mm/hr     mm/hr       CMS
  ---------------------------------------------------
   08/03/2005 07:10:00      3.600     0.778    0.0000
   08/03/2005 07:15:00     30.000     6.061    0.0000
   08/03/2005 07:20:00     45.600     4.501    0.0182
   08/03/2005 07:25:00     24.000     1.920    0.1147
   08/03/2005 07:30:00     27.600     2.208    0.1682
   08/03/2005 07:35:00     13.200     1.056    0.2317
   08/03/2005 07:40:00     13.200     1.056    0.2323
   08/03/2005 07:45:00     15.600     1.248    0.2333
   08/03/2005 07:50:00     18.000     1.440    0.2438
   08/03/2005 07:55:00     13.200     1.056    0.2623
   08/03/2005 08:00:00     42.000     3.360    0.2588
   08/03/2005 08:05:00     20.400     1.632    0.3777
   08/03/2005 08:10:00     12.000     0.960    0.3801
   08/03/2005 08:15:00      1.200     0.096    0.3462
   08/03/2005 08:20:00      0.000     0.000    0.2779
   08/03/2005 08:25:00      1.200     0.096    0.2249
   08/03/2005 08:30:00     14.400     1.152    0.1902
   08/03/2005 08:35:00      3.600     0.288    0.2092
   08/03/2005 08:40:00      1.200     0.096    0.1871
   08/03/2005 08:45:00      0.000     0.000    0.1623
   08/03/2005 08:50:00      2.400     0.192    0.1393
   08/03/2005 08:55:00      3.600     0.288    0.1282
   08/03/2005 09:00:00     14.400     1.152    0.1225
   08/03/2005 09:05:00     20.400     1.632    0.1500
   08/03/2005 09:10:00      1.200     0.096    0.1955
   08/03/2005 09:15:00      0.000     0.000    0.1698
   08/03/2005 09:20:00      0.000     0.000    0.1461
   08/03/2005 09:25:00      0.000     0.000    0.1275
   08/03/2005 09:30:00      0.000     0.000    0.1126
   08/03/2005 09:35:00     10.800     0.864    0.1005
   08/03/2005 09:40:00     10.800     0.864    0.1190
   08/03/2005 09:45:00      7.200     0.576    0.1362
   08/03/2005 09:50:00     19.200     1.536    0.1407
   08/03/2005 09:55:00     19.200     1.536    0.1831
   08/03/2005 10:00:00     12.000     0.960    0.2221
   08/03/2005 10:05:00      8.400     0.672    0.2296
   08/03/2005 10:10:00      9.600     0.768    0.2230
   08/03/2005 10:15:00      6.000     0.480    0.2222
   08/03/2005 10:20:00      1.200     0.096    0.2091
   08/03/2005 10:25:00      2.400     0.192    0.1826
   08/03/2005 10:30:00      2.400     0.192    0.1657
   08/03/2005 10:35:00      3.600     0.288    0.1521
   08/03/2005 10:40:00      2.400     0.192    0.1446
   08/03/2005 10:45:00      3.600     0.288    0.1349
   08/03/2005 10:50:00      4.800     0.384    0.1303
   08/03/2005 10:55:00      2.400     0.192    0.1297
   08/03/2005 11:00:00      6.000     0.480    0.1225
   08/03/2005 11:05:00      2.400     0.192    0.1263
   08/03/2005 11:10:00      2.400     0.192    0.1195
  
  
  <<< Subcatchment S14 >>>
  ---------------------------------------------------
  Date        Time        Precip.    Losses    Runoff
                            mm/hr     mm/hr       CMS
  ---------------------------------------------------
   08/03/2005 07:10:00      3.600     1.168    0.0000
   08/03/2005 07:15:00     30.000     9.092    0.0000
   08/03/2005 07:20:00     45.600     6.752    0.0145
   08/03/2005 07:25:00     24.000     2.880    0.0913
   08/03/2005 07:30:00     27.600     3.312    0.1331
   08/03/2005 07:35:00     13.200     1.584    0.1825
   08/03/2005 07:40:00     13.200     1.584    0.1817
   08/03/2005 07:45:00     15.600     1.872    0.1817
   08/03/2005 07:50:00     18.000     2.160    0.1894
   08/03/2005 07:55:00     13.200     1.584    0.2035
   08/03/2005 08:00:00     42.000     5.040    0.2005
   08/03/2005 08:05:00     20.400     2.448    0.2939
   08/03/2005 08:10:00     12.000     1.440    0.2953
   08/03/2005 08:15:00      1.200     0.144    0.2685
   08/03/2005 08:20:00      0.000     0.000    0.2152
   08/03/2005 08:25:00      1.200     0.144    0.1742
   08/03/2005 08:30:00     14.400     1.728    0.1477
   08/03/2005 08:35:00      3.600     0.432    0.1634
   08/03/2005 08:40:00      1.200     0.144    0.1468
   08/03/2005 08:45:00      0.000     0.000    0.1280
   08/03/2005 08:50:00      2.400     0.288    0.1107
   08/03/2005 08:55:00      3.600     0.432    0.1026
   08/03/2005 09:00:00     14.400     1.728    0.0988
   08/03/2005 09:05:00     20.400     2.448    0.1211
   08/03/2005 09:10:00      1.200     0.144    0.1577
   08/03/2005 09:15:00      0.000     0.000    0.1379
   08/03/2005 09:20:00      0.000     0.000    0.1198
   08/03/2005 09:25:00      0.000     0.000    0.1057
   08/03/2005 09:30:00      0.000     0.000    0.0945
   08/03/2005 09:35:00     10.800     1.296    0.0855
   08/03/2005 09:40:00     10.800     1.296    0.1007
   08/03/2005 09:45:00      7.200     0.864    0.1148
   08/03/2005 09:50:00     19.200     2.304    0.1189
   08/03/2005 09:55:00     19.200     2.304    0.1531
   08/03/2005 10:00:00     12.000     1.440    0.1847
   08/03/2005 10:05:00      8.400     1.008    0.1912
   08/03/2005 10:10:00      9.600     1.152    0.1866
   08/03/2005 10:15:00      6.000     0.720    0.1866
   08/03/2005 10:20:00      1.200     0.144    0.1768
   08/03/2005 10:25:00      2.400     0.288    0.1565
   08/03/2005 10:30:00      2.400     0.288    0.1438
   08/03/2005 10:35:00      3.600     0.432    0.1338
   08/03/2005 10:40:00      2.400     0.288    0.1285
   08/03/2005 10:45:00      3.600     0.432    0.1214
   08/03/2005 10:50:00      4.800     0.576    0.1183
   08/03/2005 10:55:00      2.400     0.288    0.1184
   08/03/2005 11:00:00      6.000     0.720    0.1132
   08/03/2005 11:05:00      2.400     0.288    0.1168
   08/03/2005 11:10:00      2.400     0.288    0.1119
  
  
  <<< Subcatchment S15 >>>
  ---------------------------------------------------
  Date        Time        Precip.    Losses    Runoff
                            mm/hr     mm/hr       CMS
  ---------------------------------------------------
   08/03/2005 07:10:00      3.600     0.973    0.0000
   08/03/2005 07:15:00     30.000     7.576    0.0000
   08/03/2005 07:20:00     45.600     5.626    0.0145
   08/03/2005 07:25:00     24.000     2.400    0.0910
   08/03/2005 07:30:00     27.600     2.760    0.1320
   08/03/2005 07:35:00     13.200     1.320    0.1803
   08/03/2005 07:40:00     13.200     1.320    0.1787
   08/03/2005 07:45:00     15.600     1.560    0.1780
   08/03/2005 07:50:00     18.000     1.800    0.1850
   08/03/2005 07:55:00     13.200     1.320    0.1985
   08/03/2005 08:00:00     42.000     4.200    0.1951
   08/03/2005 08:05:00     20.400     2.040    0.2869
   08/03/2005 08:10:00     12.000     1.200    0.2874
   08/03/2005 08:15:00      1.200     0.120    0.2604
   08/03/2005 08:20:00      0.000     0.000    0.2075
   08/03/2005 08:25:00      1.200     0.120    0.1670
   08/03/2005 08:30:00     14.400     1.440    0.1411
   08/03/2005 08:35:00      3.600     0.360    0.1565
   08/03/2005 08:40:00      1.200     0.120    0.1401
   08/03/2005 08:45:00      0.000     0.000    0.1216
   08/03/2005 08:50:00      2.400     0.240    0.1046
   08/03/2005 08:55:00      3.600     0.360    0.0966
   08/03/2005 09:00:00     14.400     1.440    0.0929
   08/03/2005 09:05:00     20.400     2.040    0.1147
   08/03/2005 09:10:00      1.200     0.120    0.1504
   08/03/2005 09:15:00      0.000     0.000    0.1306
   08/03/2005 09:20:00      0.000     0.000    0.1126
   08/03/2005 09:25:00      0.000     0.000    0.0987
   08/03/2005 09:30:00      0.000     0.000    0.0876
   08/03/2005 09:35:00     10.800     1.080    0.0786
   08/03/2005 09:40:00     10.800     1.080    0.0933
   08/03/2005 09:45:00      7.200     0.720    0.1070
   08/03/2005 09:50:00     19.200     1.920    0.1108
   08/03/2005 09:55:00     19.200     1.920    0.1441
   08/03/2005 10:00:00     12.000     1.200    0.1746
   08/03/2005 10:05:00      8.400     0.840    0.1804
   08/03/2005 10:10:00      9.600     0.960    0.1752
   08/03/2005 10:15:00      6.000     0.600    0.1747
   08/03/2005 10:20:00      1.200     0.120    0.1646
   08/03/2005 10:25:00      2.400     0.240    0.1443
   08/03/2005 10:30:00      2.400     0.240    0.1315
   08/03/2005 10:35:00      3.600     0.360    0.1214
   08/03/2005 10:40:00      2.400     0.240    0.1161
   08/03/2005 10:45:00      3.600     0.360    0.1089
   08/03/2005 10:50:00      4.800     0.480    0.1057
   08/03/2005 10:55:00      2.400     0.240    0.1056
   08/03/2005 11:00:00      6.000     0.600    0.1003
   08/03/2005 11:05:00      2.400     0.240    0.1035
   08/03/2005 11:10:00      2.400     0.240    0.0986
  
  
  ************
  Node Results
  ************
  
  <<< Node J0 >>>
  ----------------------------------------------------------------
                           Inflow  Flooding     Depth      Head
  Date        Time            CMS       CMS    meters    meters
  ----------------------------------------------------------------
   08/03/2005 07:10:00      0.000     0.000     0.011    31.001
   08/03/2005 07:15:00      0.000     0.000     0.007    30.997
   08/03/2005 07:20:00      0.014     0.000     0.040    31.030
   08/03/2005 07:25:00      0.088     0.000     0.104    31.094
   08/03/2005 07:30:00      0.122     0.000     0.127    31.117
   08/03/2005 07:35:00      0.165     0.000     0.147    31.137
   08/03/2005 07:40:00      0.160     0.000     0.147    31.137
   08/03/2005 07:45:00      0.156     0.000     0.145    31.135
   08/03/2005 07:50:00      0.160     0.000     0.146    31.136
   08/03/2005 07:55:00      0.170     0.000     0.150    31.140
   08/03/2005 08:00:00      0.166     0.000     0.149    31.139
   08/03/2005 08:05:00      0.248     0.000     0.180    31.170
   08/03/2005 08:10:00      0.246     0.000     0.182    31.172
   08/03/2005 08:15:00      0.221     0.000     0.172    31.162
   08/03/2005 08:20:00      0.173     0.000     0.153    31.143
   08/03/2005 08:25:00      0.138     0.000     0.137    31.127
   08/03/2005 08:30:00      0.113     0.000     0.124    31.114
   08/03/2005 08:35:00      0.127     0.000     0.130    31.120
   08/03/2005 08:40:00      0.115     0.000     0.125    31.115
   08/03/2005 08:45:00      0.099     0.000     0.116    31.106
   08/03/2005 08:50:00      0.085     0.000     0.108    31.098
   08/03/2005 08:55:00      0.078     0.000     0.103    31.093
   08/03/2005 09:00:00      0.075     0.000     0.101    31.091
   08/03/2005 09:05:00      0.094     0.000     0.112    31.102
   08/03/2005 09:10:00      0.126     0.000     0.129    31.119
   08/03/2005 09:15:00      0.110     0.000     0.123    31.113
   08/03/2005 09:20:00      0.095     0.000     0.114    31.104
   08/03/2005 09:25:00      0.081     0.000     0.106    31.096
   08/03/2005 09:30:00      0.073     0.000     0.100    31.090
   08/03/2005 09:35:00      0.065     0.000     0.094    31.084
   08/03/2005 09:40:00      0.077     0.000     0.101    31.091
   08/03/2005 09:45:00      0.090     0.000     0.109    31.099
   08/03/2005 09:50:00      0.094     0.000     0.112    31.102
   08/03/2005 09:55:00      0.124     0.000     0.127    31.117
   08/03/2005 10:00:00      0.150     0.000     0.141    31.131
   08/03/2005 10:05:00      0.156     0.000     0.144    31.134
   08/03/2005 10:10:00      0.150     0.000     0.142    31.132
   08/03/2005 10:15:00      0.149     0.000     0.141    31.131
   08/03/2005 10:20:00      0.139     0.000     0.137    31.127
   08/03/2005 10:25:00      0.121     0.000     0.128    31.118
   08/03/2005 10:30:00      0.110     0.000     0.122    31.112
   08/03/2005 10:35:00      0.101     0.000     0.117    31.107
   08/03/2005 10:40:00      0.096     0.000     0.114    31.104
   08/03/2005 10:45:00      0.090     0.000     0.110    31.100
   08/03/2005 10:50:00      0.087     0.000     0.109    31.099
   08/03/2005 10:55:00      0.087     0.000     0.109    31.099
   08/03/2005 11:00:00      0.083     0.000     0.106    31.096
   08/03/2005 11:05:00      0.086     0.000     0.107    31.097
   08/03/2005 11:10:00      0.082     0.000     0.105    31.095
  
  
  <<< Node J1 >>>
  ----------------------------------------------------------------
                           Inflow  Flooding     Depth      Head
  Date        Time            CMS       CMS    meters    meters
  ----------------------------------------------------------------
   08/03/2005 07:10:00      0.000     0.000     0.000    28.990
   08/03/2005 07:15:00      0.000     0.000     0.002    28.992
   08/03/2005 07:20:00      0.014     0.000     0.044    29.034
   08/03/2005 07:25:00      0.077     0.000     0.108    29.098
   08/03/2005 07:30:00      0.093     0.000     0.122    29.112
   08/03/2005 07:35:00      0.113     0.000     0.134    29.124
   08/03/2005 07:40:00      0.097     0.000     0.126    29.116
   08/03/2005 07:45:00      0.087     0.000     0.119    29.109
   08/03/2005 07:50:00      0.086     0.000     0.118    29.108
   08/03/2005 07:55:00      0.091     0.000     0.121    29.111
   08/03/2005 08:00:00      0.085     0.000     0.117    29.107
   08/03/2005 08:05:00      0.142     0.000     0.149    29.139
   08/03/2005 08:10:00      0.132     0.000     0.146    29.136
   08/03/2005 08:15:00      0.109     0.000     0.133    29.123
   08/03/2005 08:20:00      0.074     0.000     0.111    29.101
   08/03/2005 08:25:00      0.053     0.000     0.094    29.084
   08/03/2005 08:30:00      0.040     0.000     0.082    29.072
   08/03/2005 08:35:00      0.051     0.000     0.091    29.081
   08/03/2005 08:40:00      0.045     0.000     0.086    29.076
   08/03/2005 08:45:00      0.035     0.000     0.077    29.067
   08/03/2005 08:50:00      0.028     0.000     0.069    29.059
   08/03/2005 08:55:00      0.024     0.000     0.064    29.054
   08/03/2005 09:00:00      0.024     0.000     0.064    29.054
   08/03/2005 09:05:00      0.038     0.000     0.078    29.068
   08/03/2005 09:10:00      0.060     0.000     0.097    29.087
   08/03/2005 09:15:00      0.046     0.000     0.088    29.078
   08/03/2005 09:20:00      0.035     0.000     0.077    29.067
   08/03/2005 09:25:00      0.026     0.000     0.068    29.058
   08/03/2005 09:30:00      0.021     0.000     0.061    29.051
   08/03/2005 09:35:00      0.017     0.000     0.055    29.045
   08/03/2005 09:40:00      0.026     0.000     0.065    29.055
   08/03/2005 09:45:00      0.035     0.000     0.075    29.065
   08/03/2005 09:50:00      0.037     0.000     0.078    29.068
   08/03/2005 09:55:00      0.058     0.000     0.095    29.085
   08/03/2005 10:00:00      0.074     0.000     0.108    29.098
   08/03/2005 10:05:00      0.073     0.000     0.109    29.099
   08/03/2005 10:10:00      0.065     0.000     0.103    29.093
   08/03/2005 10:15:00      0.062     0.000     0.101    29.091
   08/03/2005 10:20:00      0.054     0.000     0.095    29.085
   08/03/2005 10:25:00      0.042     0.000     0.084    29.074
   08/03/2005 10:30:00      0.035     0.000     0.077    29.067
   08/03/2005 10:35:00      0.030     0.000     0.071    29.061
   08/03/2005 10:40:00      0.028     0.000     0.069    29.059
   08/03/2005 10:45:00      0.025     0.000     0.065    29.055
   08/03/2005 10:50:00      0.025     0.000     0.064    29.054
   08/03/2005 10:55:00      0.025     0.000     0.065    29.055
   08/03/2005 11:00:00      0.023     0.000     0.063    29.053
   08/03/2005 11:05:00      0.026     0.000     0.065    29.055
   08/03/2005 11:10:00      0.024     0.000     0.063    29.053
  
  
  <<< Node J2 >>>
  ----------------------------------------------------------------
                           Inflow  Flooding     Depth      Head
  Date        Time            CMS       CMS    meters    meters
  ----------------------------------------------------------------
   08/03/2005 07:10:00      0.001     0.000     0.066    26.056
   08/03/2005 07:15:00      0.000     0.000     0.042    26.032
   08/03/2005 07:20:00      0.022     0.000     0.040    26.030
   08/03/2005 07:25:00      0.168     0.000     0.111    26.101
   08/03/2005 07:30:00      0.249     0.000     0.187    26.177
   08/03/2005 07:35:00      0.308     0.000     0.216    26.206
   08/03/2005 07:40:00      0.293     0.000     0.223    26.213
   08/03/2005 07:45:00      0.271     0.000     0.215    26.205
   08/03/2005 07:50:00      0.272     0.000     0.212    26.202
   08/03/2005 07:55:00      0.289     0.000     0.216    26.206
   08/03/2005 08:00:00      0.283     0.000     0.218    26.208
   08/03/2005 08:05:00      0.420     0.000     0.244    26.234
   08/03/2005 08:10:00      0.435     0.000     0.268    26.258
   08/03/2005 08:15:00      0.380     0.000     0.257    26.247
   08/03/2005 08:20:00      0.291     0.000     0.232    26.222
   08/03/2005 08:25:00      0.222     0.000     0.203    26.193
   08/03/2005 08:30:00      0.180     0.000     0.182    26.172
   08/03/2005 08:35:00      0.199     0.000     0.178    26.168
   08/03/2005 08:40:00      0.189     0.000     0.181    26.171
   08/03/2005 08:45:00      0.161     0.000     0.170    26.160
   08/03/2005 08:50:00      0.135     0.000     0.158    26.148
   08/03/2005 08:55:00      0.121     0.000     0.147    26.137
   08/03/2005 09:00:00      0.117     0.000     0.143    26.133
   08/03/2005 09:05:00      0.149     0.000     0.149    26.139
   08/03/2005 09:10:00      0.212     0.000     0.174    26.164
   08/03/2005 09:15:00      0.193     0.000     0.185    26.175
   08/03/2005 09:20:00      0.157     0.000     0.170    26.160
   08/03/2005 09:25:00      0.130     0.000     0.155    26.145
   08/03/2005 09:30:00      0.112     0.000     0.144    26.134
   08/03/2005 09:35:00      0.098     0.000     0.134    26.124
   08/03/2005 09:40:00      0.116     0.000     0.134    26.124
   08/03/2005 09:45:00      0.144     0.000     0.148    26.138
   08/03/2005 09:50:00      0.154     0.000     0.158    26.148
   08/03/2005 09:55:00      0.204     0.000     0.173    26.163
   08/03/2005 10:00:00      0.258     0.000     0.197    26.187
   08/03/2005 10:05:00      0.268     0.000     0.209    26.199
   08/03/2005 10:10:00      0.253     0.000     0.207    26.197
[...]
   08/03/2005 07:45:00      0.314     1.466     0.207     0.030
   08/03/2005 07:50:00      0.306     1.450     0.205     0.030
   08/03/2005 07:55:00      0.319     1.476     0.208     0.031
   08/03/2005 08:00:00      0.330     1.491     0.212     0.031
   08/03/2005 08:05:00      0.398     1.620     0.228     0.035
   08/03/2005 08:10:00      0.506     1.738     0.255     0.041
   08/03/2005 08:15:00      0.476     1.661     0.253     0.040
   08/03/2005 08:20:00      0.400     1.549     0.236     0.036
   08/03/2005 08:25:00      0.316     1.424     0.212     0.031
   08/03/2005 08:30:00      0.258     1.338     0.193     0.027
   08/03/2005 08:35:00      0.242     1.344     0.185     0.025
   08/03/2005 08:40:00      0.256     1.390     0.187     0.026
   08/03/2005 08:45:00      0.232     1.338     0.180     0.025
   08/03/2005 08:50:00      0.203     1.268     0.170     0.023
   08/03/2005 08:55:00      0.180     1.218     0.161     0.021
   08/03/2005 09:00:00      0.170     1.206     0.156     0.020
   08/03/2005 09:05:00      0.181     1.257     0.158     0.020
   08/03/2005 09:10:00      0.237     1.422     0.175     0.024
   08/03/2005 09:15:00      0.273     1.464     0.189     0.026
   08/03/2005 09:20:00      0.238     1.362     0.181     0.025
   08/03/2005 09:25:00      0.204     1.282     0.170     0.023
   08/03/2005 09:30:00      0.180     1.227     0.160     0.021
   08/03/2005 09:35:00      0.161     1.185     0.152     0.019
   08/03/2005 09:40:00      0.159     1.195     0.149     0.019
   08/03/2005 09:45:00      0.188     1.300     0.158     0.020
   08/03/2005 09:50:00      0.212     1.356     0.167     0.022
   08/03/2005 09:55:00      0.242     1.425     0.178     0.024
   08/03/2005 10:00:00      0.308     1.538     0.198     0.028
   08/03/2005 10:05:00      0.349     1.571     0.212     0.031
   08/03/2005 10:10:00      0.348     1.544     0.214     0.032
   08/03/2005 10:15:00      0.337     1.520     0.212     0.031
   08/03/2005 10:20:00      0.327     1.504     0.209     0.031
   08/03/2005 10:25:00      0.300     1.456     0.202     0.029
   08/03/2005 10:30:00      0.267     1.403     0.192     0.027
   08/03/2005 10:35:00      0.246     1.379     0.184     0.025
   08/03/2005 10:40:00      0.232     1.363     0.178     0.024
   08/03/2005 10:45:00      0.223     1.349     0.174     0.023
   08/03/2005 10:50:00      0.214     1.333     0.171     0.023
   08/03/2005 10:55:00      0.212     1.334     0.169     0.022
   08/03/2005 11:00:00      0.210     1.333     0.168     0.022
   08/03/2005 11:05:00      0.207     1.327     0.167     0.022
   08/03/2005 11:10:00      0.209     1.336     0.168     0.022
  
  
  <<< Link C20 >>>
  ----------------------------------------------------------------
                             Flow  Velocity     Depth  Capacity/
  Date        Time            CMS     m/sec    meters   Setting 
  ----------------------------------------------------------------
   08/03/2005 07:10:00      0.000     0.000     0.000     0.000
   08/03/2005 07:15:00      0.000     0.000     0.001     0.000
   08/03/2005 07:20:00      0.001     0.355     0.011     0.001
   08/03/2005 07:25:00      0.023     0.690     0.059     0.005
   08/03/2005 07:30:00      0.180     1.290     0.155     0.020
   08/03/2005 07:35:00      0.383     1.615     0.222     0.034
   08/03/2005 07:40:00      0.498     1.739     0.253     0.041
   08/03/2005 07:45:00      0.500     1.721     0.255     0.041
   08/03/2005 07:50:00      0.489     1.700     0.254     0.041
   08/03/2005 07:55:00      0.501     1.710     0.257     0.041
   08/03/2005 08:00:00      0.523     1.733     0.261     0.043
   08/03/2005 08:05:00      0.581     1.777     0.276     0.046
   08/03/2005 08:10:00      0.754     1.950     0.310     0.055
   08/03/2005 08:15:00      0.765     1.951     0.313     0.055
   08/03/2005 08:20:00      0.678     1.879     0.296     0.051
   08/03/2005 08:25:00      0.551     1.755     0.269     0.044
   08/03/2005 08:30:00      0.449     1.650     0.244     0.038
   08/03/2005 08:35:00      0.398     1.585     0.231     0.036
   08/03/2005 08:40:00      0.403     1.604     0.231     0.036
   08/03/2005 08:45:00      0.380     1.577     0.225     0.034
   08/03/2005 08:50:00      0.337     1.519     0.212     0.031
   08/03/2005 08:55:00      0.298     1.462     0.200     0.029
   08/03/2005 09:00:00      0.273     1.428     0.192     0.027
   08/03/2005 09:05:00      0.274     1.427     0.192     0.027
   08/03/2005 09:10:00      0.328     1.513     0.209     0.031
   08/03/2005 09:15:00      0.398     1.625     0.227     0.035
   08/03/2005 09:20:00      0.380     1.594     0.223     0.034
   08/03/2005 09:25:00      0.333     1.526     0.210     0.031
   08/03/2005 09:30:00      0.292     1.465     0.197     0.028
   08/03/2005 09:35:00      0.259     1.417     0.187     0.026
   08/03/2005 09:40:00      0.244     1.392     0.182     0.025
   08/03/2005 09:45:00      0.268     1.435     0.189     0.026
   08/03/2005 09:50:00      0.305     1.498     0.200     0.029
   08/03/2005 09:55:00      0.341     1.545     0.212     0.031
   08/03/2005 10:00:00      0.422     1.652     0.234     0.036
   08/03/2005 10:05:00      0.504     1.748     0.254     0.041
   08/03/2005 10:10:00      0.526     1.765     0.259     0.042
   08/03/2005 10:15:00      0.516     1.751     0.258     0.042
   08/03/2005 10:20:00      0.504     1.739     0.255     0.041
   08/03/2005 10:25:00      0.472     1.706     0.247     0.039
   08/03/2005 10:30:00      0.426     1.654     0.236     0.036
   08/03/2005 10:35:00      0.388     1.606     0.225     0.034
   08/03/2005 10:40:00      0.361     1.573     0.217     0.033
   08/03/2005 10:45:00      0.344     1.552     0.212     0.031
   08/03/2005 10:50:00      0.328     1.532     0.207     0.030
   08/03/2005 10:55:00      0.320     1.521     0.204     0.030
   08/03/2005 11:00:00      0.316     1.519     0.203     0.029
   08/03/2005 11:05:00      0.310     1.511     0.201     0.029
   08/03/2005 11:10:00      0.311     1.515     0.201     0.029
  
  
  <<< Link C21 >>>
  ----------------------------------------------------------------
                             Flow  Velocity     Depth  Capacity/
  Date        Time            CMS     m/sec    meters   Setting 
  ----------------------------------------------------------------
   08/03/2005 07:10:00      0.000     0.000     0.000     0.000
   08/03/2005 07:15:00      0.000     0.000     0.003     0.000
   08/03/2005 07:20:00      0.009     1.450     0.029     0.008
   08/03/2005 07:25:00      0.077     2.297     0.087     0.043
   08/03/2005 07:30:00      0.124     1.761     0.145     0.090
   08/03/2005 07:35:00      0.172     1.694     0.187     0.129
   08/03/2005 07:40:00      0.179     1.593     0.201     0.143
   08/03/2005 07:45:00      0.178     1.588     0.200     0.143
   08/03/2005 07:50:00      0.184     1.639     0.201     0.143
   08/03/2005 07:55:00      0.196     1.699     0.205     0.147
   08/03/2005 08:00:00      0.196     1.670     0.207     0.149
   08/03/2005 08:05:00      0.273     2.017     0.229     0.173
   08/03/2005 08:10:00      0.287     1.895     0.248     0.193
   08/03/2005 08:15:00      0.265     1.781     0.244     0.189
   08/03/2005 08:20:00      0.216     1.620     0.226     0.170
   08/03/2005 08:25:00      0.174     1.509     0.205     0.147
   08/03/2005 08:30:00      0.146     1.438     0.187     0.129
   08/03/2005 08:35:00      0.154     1.566     0.183     0.125
   08/03/2005 08:40:00      0.143     1.483     0.181     0.123
   08/03/2005 08:45:00      0.125     1.379     0.173     0.116
   08/03/2005 08:50:00      0.108     1.302     0.162     0.106
   08/03/2005 08:55:00      0.098     1.278     0.154     0.098
   08/03/2005 09:00:00      0.094     1.277     0.149     0.093
   08/03/2005 09:05:00      0.110     1.428     0.154     0.098
   08/03/2005 09:10:00      0.144     1.602     0.171     0.114
   08/03/2005 09:15:00      0.134     1.420     0.178     0.120
   08/03/2005 09:20:00      0.116     1.305     0.171     0.113
   08/03/2005 09:25:00      0.101     1.250     0.160     0.103
   08/03/2005 09:30:00      0.090     1.208     0.151     0.095
   08/03/2005 09:35:00      0.081     1.169     0.143     0.088
   08/03/2005 09:40:00      0.090     1.296     0.144     0.089
   08/03/2005 09:45:00      0.104     1.382     0.152     0.096
   08/03/2005 09:50:00      0.110     1.368     0.159     0.102
   08/03/2005 09:55:00      0.138     1.533     0.172     0.115
   08/03/2005 10:00:00      0.169     1.626     0.190     0.132
   08/03/2005 10:05:00      0.179     1.587     0.202     0.144
   08/03/2005 10:10:00      0.176     1.542     0.203     0.145
   08/03/2005 10:15:00      0.175     1.545     0.202     0.144
   08/03/2005 10:20:00      0.166     1.506     0.198     0.141
   08/03/2005 10:25:00      0.148     1.420     0.190     0.133
   08/03/2005 10:30:00      0.134     1.380     0.181     0.124
   08/03/2005 10:35:00      0.123     1.350     0.174     0.116
   08/03/2005 10:40:00      0.117     1.338     0.169     0.111
   08/03/2005 10:45:00      0.110     1.308     0.164     0.107
   08/03/2005 10:50:00      0.106     1.299     0.161     0.104
   08/03/2005 10:55:00      0.106     1.305     0.160     0.103
   08/03/2005 11:00:00      0.101     1.274     0.158     0.101
   08/03/2005 11:05:00      0.103     1.295     0.158     0.101
   08/03/2005 11:10:00      0.100     1.265     0.157     0.100
  
  
  <<< Link C23 >>>
  ----------------------------------------------------------------
                             Flow  Velocity     Depth  Capacity/
  Date        Time            CMS     m/sec    meters   Setting 
  ----------------------------------------------------------------
   08/03/2005 07:10:00      0.068     1.002     0.090     0.007
   08/03/2005 07:15:00      0.059     1.002     0.082     0.006
   08/03/2005 07:20:00      0.045     0.986     0.070     0.004
   08/03/2005 07:25:00      0.053     0.992     0.077     0.005
   08/03/2005 07:30:00      0.287     1.238     0.205     0.023
   08/03/2005 07:35:00      1.156     1.912     0.393     0.059
   08/03/2005 07:40:00      1.968     2.293     0.501     0.084
   08/03/2005 07:45:00      2.214     2.404     0.525     0.090
   08/03/2005 07:50:00      2.187     2.398     0.522     0.090
   08/03/2005 07:55:00      2.208     2.400     0.525     0.090
   08/03/2005 08:00:00      2.309     2.431     0.537     0.093
   08/03/2005 08:05:00      2.442     2.459     0.553     0.098
   08/03/2005 08:10:00      3.107     2.629     0.624     0.116
   08/03/2005 08:15:00      3.454     2.743     0.653     0.124
   08/03/2005 08:20:00      3.187     2.677     0.627     0.117
   08/03/2005 08:25:00      2.676     2.544     0.576     0.103
   08/03/2005 08:30:00      2.191     2.398     0.523     0.090
   08/03/2005 08:35:00      1.871     2.282     0.485     0.081
   08/03/2005 08:40:00      1.812     2.261     0.477     0.079
   08/03/2005 08:45:00      1.749     2.239     0.469     0.077
   08/03/2005 08:50:00      1.585     2.177     0.447     0.071
   08/03/2005 08:55:00      1.401     2.098     0.421     0.066
   08/03/2005 09:00:00      1.262     2.026     0.401     0.061
   08/03/2005 09:05:00      1.200     1.996     0.392     0.059
   08/03/2005 09:10:00      1.306     2.036     0.409     0.063
   08/03/2005 09:15:00      1.610     2.171     0.452     0.073
   08/03/2005 09:20:00      1.691     2.218     0.461     0.075
   08/03/2005 09:25:00      1.526     2.154     0.439     0.070
   08/03/2005 09:30:00      1.340     2.068     0.412     0.064
   08/03/2005 09:35:00      1.183     1.989     0.389     0.058
   08/03/2005 09:40:00      1.076     1.945     0.370     0.054
   08/03/2005 09:45:00      1.087     1.941     0.373     0.055
   08/03/2005 09:50:00      1.218     1.995     0.396     0.060
   08/03/2005 09:55:00      1.359     2.067     0.417     0.065
   08/03/2005 10:00:00      1.627     2.174     0.455     0.073
   08/03/2005 10:05:00      2.006     2.319     0.504     0.085
   08/03/2005 10:10:00      2.220     2.403     0.526     0.091
   08/03/2005 10:15:00      2.220     2.410     0.526     0.091
   08/03/2005 10:20:00      2.174     2.396     0.520     0.089
   08/03/2005 10:25:00      2.068     2.358     0.508     0.086
   08/03/2005 10:30:00      1.885     2.288     0.487     0.081
   08/03/2005 10:35:00      1.707     2.223     0.463     0.075
   08/03/2005 10:40:00      1.567     2.171     0.444     0.071
   08/03/2005 10:45:00      1.474     2.138     0.431     0.068
   08/03/2005 10:50:00      1.396     2.098     0.420     0.065
   08/03/2005 10:55:00      1.340     2.068     0.412     0.064
   08/03/2005 11:00:00      1.312     2.053     0.408     0.063
   08/03/2005 11:05:00      1.285     2.038     0.404     0.062
   08/03/2005 11:10:00      1.275     2.033     0.403     0.062
  
  
  <<< Link C24 >>>
  ----------------------------------------------------------------
                             Flow  Velocity     Depth  Capacity/
  Date        Time            CMS     m/sec    meters   Setting 
  ----------------------------------------------------------------
   08/03/2005 07:10:00      0.000     0.000     0.000     0.000
   08/03/2005 07:15:00      0.000     0.000     0.003     0.000
   08/03/2005 07:20:00      0.007     0.825     0.032     0.008
   08/03/2005 07:25:00      0.068     1.380     0.109     0.051
   08/03/2005 07:30:00      0.123     1.433     0.160     0.090
   08/03/2005 07:35:00      0.170     1.602     0.186     0.112
   08/03/2005 07:40:00      0.182     1.638     0.192     0.117
   08/03/2005 07:45:00      0.182     1.666     0.189     0.115
   08/03/2005 07:50:00      0.187     1.704     0.190     0.116
   08/03/2005 07:55:00      0.200     1.747     0.196     0.121
   08/03/2005 08:00:00      0.201     1.742     0.197     0.122
   08/03/2005 08:05:00      0.274     1.938     0.227     0.149
   08/03/2005 08:10:00      0.295     1.939     0.239     0.160
   08/03/2005 08:15:00      0.274     1.898     0.230     0.152
   08/03/2005 08:20:00      0.227     1.792     0.210     0.133
   08/03/2005 08:25:00      0.184     1.689     0.189     0.115
   08/03/2005 08:30:00      0.154     1.610     0.173     0.101
   08/03/2005 08:35:00      0.159     1.646     0.174     0.102
   08/03/2005 08:40:00      0.151     1.591     0.172     0.100
   08/03/2005 08:45:00      0.133     1.519     0.162     0.092
   08/03/2005 08:50:00      0.115     1.452     0.152     0.084
   08/03/2005 08:55:00      0.105     1.410     0.145     0.078
   08/03/2005 09:00:00      0.100     1.389     0.142     0.076
   08/03/2005 09:05:00      0.115     1.466     0.151     0.082
   08/03/2005 09:10:00      0.148     1.579     0.171     0.099
   08/03/2005 09:15:00      0.143     1.519     0.171     0.099
   08/03/2005 09:20:00      0.125     1.456     0.160     0.090
   08/03/2005 09:25:00      0.109     1.406     0.150     0.082
   08/03/2005 09:30:00      0.098     1.358     0.142     0.076
   08/03/2005 09:35:00      0.088     1.315     0.135     0.070
   08/03/2005 09:40:00      0.096     1.371     0.139     0.074
   08/03/2005 09:45:00      0.111     1.430     0.150     0.082
   08/03/2005 09:50:00      0.118     1.443     0.155     0.086
   08/03/2005 09:55:00      0.144     1.548     0.170     0.098
   08/03/2005 10:00:00      0.177     1.638     0.188     0.114
   08/03/2005 10:05:00      0.190     1.658     0.196     0.120
   08/03/2005 10:10:00      0.188     1.654     0.195     0.119
   08/03/2005 10:15:00      0.187     1.660     0.193     0.118
   08/03/2005 10:20:00      0.179     1.639     0.189     0.115
   08/03/2005 10:25:00      0.161     1.586     0.180     0.107
   08/03/2005 10:30:00      0.147     1.548     0.172     0.100
   08/03/2005 10:35:00      0.136     1.514     0.166     0.095
   08/03/2005 10:40:00      0.130     1.493     0.162     0.092
   08/03/2005 10:45:00      0.123     1.467     0.158     0.088
   08/03/2005 10:50:00      0.119     1.452     0.156     0.086
   08/03/2005 10:55:00      0.118     1.449     0.155     0.086
   08/03/2005 11:00:00      0.115     1.429     0.153     0.084
   08/03/2005 11:05:00      0.116     1.437     0.154     0.085
   08/03/2005 11:10:00      0.113     1.421     0.153     0.084
  
  
  <<< Link C22 >>>
  ----------------------------------------------------------------
                             Flow  Velocity     Depth  Capacity/
  Date        Time            CMS     m/sec    meters   Setting 
  ----------------------------------------------------------------
   08/03/2005 07:10:00      0.000     0.000     0.036     0.007
   08/03/2005 07:15:00      0.000     0.002     0.029     0.005
   08/03/2005 07:20:00      0.004     0.352     0.040     0.008
   08/03/2005 07:25:00      0.059     1.452     0.089     0.027
   08/03/2005 07:30:00      0.126     1.538     0.142     0.053
   08/03/2005 07:35:00      0.172     1.473     0.181     0.076
   08/03/2005 07:40:00      0.187     1.415     0.197     0.086
   08/03/2005 07:45:00      0.188     1.412     0.199     0.087
   08/03/2005 07:50:00      0.195     1.461     0.199     0.087
   08/03/2005 07:55:00      0.209     1.518     0.203     0.089
   08/03/2005 08:00:00      0.211     1.510     0.205     0.091
   08/03/2005 08:05:00      0.284     1.767     0.226     0.104
   08/03/2005 08:10:00      0.309     1.716     0.244     0.117
   08/03/2005 08:15:00      0.290     1.630     0.242     0.116
   08/03/2005 08:20:00      0.243     1.516     0.225     0.104
   08/03/2005 08:25:00      0.198     1.429     0.204     0.090
   08/03/2005 08:30:00      0.167     1.378     0.185     0.079
   08/03/2005 08:35:00      0.171     1.463     0.181     0.076
   08/03/2005 08:40:00      0.163     1.420     0.179     0.075
   08/03/2005 08:45:00      0.144     1.337     0.171     0.070
   08/03/2005 08:50:00      0.126     1.271     0.161     0.064
   08/03/2005 08:55:00      0.114     1.251     0.153     0.059
   08/03/2005 09:00:00      0.109     1.255     0.148     0.056
   08/03/2005 09:05:00      0.124     1.366     0.152     0.059
   08/03/2005 09:10:00      0.157     1.508     0.168     0.068
   08/03/2005 09:15:00      0.154     1.385     0.175     0.072
   08/03/2005 09:20:00      0.135     1.284     0.169     0.068
   08/03/2005 09:25:00      0.120     1.235     0.159     0.063
   08/03/2005 09:30:00      0.107     1.212     0.150     0.058
   08/03/2005 09:35:00      0.097     1.192     0.142     0.053
   08/03/2005 09:40:00      0.105     1.282     0.142     0.053
   08/03/2005 09:45:00      0.120     1.363     0.149     0.057
   08/03/2005 09:50:00      0.128     1.355     0.156     0.061
   08/03/2005 09:55:00      0.155     1.465     0.169     0.069
   08/03/2005 10:00:00      0.189     1.547     0.187     0.079
   08/03/2005 10:05:00      0.203     1.525     0.198     0.087
   08/03/2005 10:10:00      0.202     1.490     0.201     0.088
   08/03/2005 10:15:00      0.202     1.497     0.200     0.087
   08/03/2005 10:20:00      0.195     1.480     0.197     0.085
   08/03/2005 10:25:00      0.177     1.424     0.189     0.081
   08/03/2005 10:30:00      0.163     1.397     0.181     0.076
   08/03/2005 10:35:00      0.152     1.382     0.173     0.071
   08/03/2005 10:40:00      0.145     1.380     0.168     0.068
   08/03/2005 10:45:00      0.138     1.364     0.164     0.066
   08/03/2005 10:50:00      0.134     1.360     0.161     0.064
   08/03/2005 10:55:00      0.134     1.370     0.160     0.063
   08/03/2005 11:00:00      0.130     1.353     0.158     0.062
   08/03/2005 11:05:00      0.131     1.369     0.158     0.062
   08/03/2005 11:10:00      0.129     1.354     0.157     0.062
  

  Analysis begun on:  Wed Mar 27 17:36:19 2019
  Analysis ended on:  Wed Mar 27 17:36:19 2019
  Total elapsed time: < 1 sec