
  EPA STORM WATER MANAGEMENT MODEL - VERSION 5.1 (Build 5.1.012)
  --------------------------------------------------------------

  
  *************
  Element Count
  *************
  Number of rain gages ...... 1
  Number of subcatchments ... 15
  Number of nodes ........... 25
  Number of links ........... 24
  Number of pollutants ...... 0
  Number of land uses ....... 0
  
  
  ****************
  Raingage Summary
  ****************
                                                      Data       Recording
  Name                 Data Source                    Type       Interval 
  ------------------------------------------------------------------------
  1                    20050803                       VOLUME       5 min.
  
  
  ********************
  Subcatchment Summary
  ********************
  Name                       Area     Width   %Imperv    %Slope Rain Gage            Outlet              
  -----------------------------------------------------------------------------------------------------------
  S1                         2.21    400.00     80.00    0.0500 1                    J1                  
  S2                         7.25    400.00     50.00    0.0500 1                    J0                  
  S3                         1.53    400.00     30.00    0.0500 1                    J4                  
  S4                         6.18    400.00     20.00    0.0500 1                    J8                  
  S5                         9.28    400.00     20.00    0.0500 1                    J7                  
  S6                         6.98    400.00     60.00    0.0500 1                    J5                  
  S7                         3.28    400.00     40.00    0.0500 1                    J25                 
  S8                        10.68    400.00     70.00    0.0500 1                    J11                 
  S9                        16.43    400.00     30.00    0.0500 1                    J14                 
  S10                        2.73    400.00     40.00    0.0500 1                    J9                  
  S11                        9.27    700.00     40.00    0.0500 1                    J10                 
  S12                       10.58    400.00     60.00    0.0500 1                    J17                 
  S13                       10.08    500.00     60.00    0.0500 1                    J24                 
  S14                       11.53    400.00     40.00    0.0500 1                    J15                 
  S15                        8.92    400.00     50.00    0.0500 1                    J23                 
  
  
  ************
  Node Summary
  ************
                                           Invert      Max.    Ponded    External
  Name                 Type                 Elev.     Depth      Area    Inflow  
  -------------------------------------------------------------------------------
  J0                   JUNCTION             30.99      4.00       0.0
  J1                   JUNCTION             28.99      4.00       0.0
  J2                   JUNCTION             25.99      4.00       0.0
  J3                   JUNCTION             30.99      4.00       0.0
  J4                   JUNCTION             33.99      4.00       0.0
  J5                   JUNCTION             28.99      4.00       0.0
  J6                   JUNCTION             23.79      4.00       0.0
  J7                   JUNCTION             28.39      4.00       0.0
  J8                   JUNCTION             29.99      4.00       0.0
  J9                   JUNCTION             28.69      4.00       0.0
  J10                  JUNCTION             25.99      4.00       0.0
  J11                  JUNCTION             25.69      4.00       0.0
  J12                  JUNCTION             22.79      4.00       0.0
  J13                  JUNCTION             25.29      4.00       0.0
  J14                  JUNCTION             24.59      4.00       0.0
  J15                  JUNCTION             24.19      4.00       0.0
  J16                  JUNCTION             23.39      4.00       0.0
  J17                  JUNCTION             22.09      4.00       0.0
  J18                  JUNCTION             16.00      4.00       0.0
  J20                  JUNCTION             17.70      4.00       0.0
  J21                  JUNCTION             19.00      4.00       0.0
  J23                  JUNCTION             22.29      4.00       0.0
  J24                  JUNCTION             20.89      4.00       0.0
  J25                  JUNCTION             30.19      4.00       0.0
  J19                  OUTFALL              15.50      3.60       0.0
  
  
  ************
  Link Summary
  ************
  Name             From Node        To Node          Type            Length    %Slope Roughness
  ---------------------------------------------------------------------------------------------
  C0               J0               J2               CONDUIT          214.0    2.3371    0.0110
  C1               J1               J2               CONDUIT          152.0    1.9741    0.0110
  C2               J3               J2               CONDUIT          306.0    1.6342    0.0110
  C3               J4               J3               CONDUIT          128.0    2.3444    0.0110
  C4               J2               J6               CONDUIT          293.0    0.7509    0.0110
  C5               J5               J6               CONDUIT          246.0    2.1143    0.0110
  C6               J25              J11              CONDUIT          289.0    1.5573    0.0110
  C7               J6               J12              CONDUIT          335.0    0.2985    0.0110
  C8               J7               J6               CONDUIT          187.0    2.4606    0.0110
  C9               J8               J9               CONDUIT          119.0    1.0925    0.0110
  C10              J9               J16              CONDUIT          325.0    1.6310    0.0110
  C11              J10              J11              CONDUIT          227.0    0.1322    0.0110
  C12              J12              J18              CONDUIT          401.0    1.6935    0.0110
  C13              J17              J18              CONDUIT          267.0    2.2815    0.0110
  C14              J11              J13              CONDUIT          113.0    0.3540    0.0110
  C16              J13              J17              CONDUIT          409.0    0.7824    0.0110
  C17              J24              J20              CONDUIT          329.0    0.9697    0.0110
  C18              J20              J18              CONDUIT          215.0    0.7907    0.0110
  C19              J16              J21              CONDUIT          437.0    1.0046    0.0110
  C20              J21              J20              CONDUIT          295.0    0.4407    0.0110
  C21              J23              J21              CONDUIT          204.0    1.6130    0.0110
  C23              J18              J19              CONDUIT          161.0    0.3106    0.0110
  C24              J15              J16              CONDUIT          197.0    0.4061    0.0110
  C22              J14              J12              CONDUIT          280.0    0.6429    0.0110
  
  
  *********************
  Cross Section Summary
  *********************
                                        Full     Full     Hyd.     Max.   No. of     Full
  Conduit          Shape               Depth     Area     Rad.    Width  Barrels     Flow
  ---------------------------------------------------------------------------------------
  C0               CIRCULAR             0.70     0.38     0.17     0.70        1     1.67
  C1               CIRCULAR             0.60     0.28     0.15     0.60        1     1.02
  C2               CIRCULAR             0.80     0.50     0.20     0.80        1     2.00
  C3               CIRCULAR             0.60     0.28     0.15     0.60        1     1.11
  C4               CIRCULAR             1.20     1.13     0.30     1.20        1     3.99
  C5               CIRCULAR             0.70     0.38     0.17     0.70        1     1.59
  C6               CIRCULAR             0.80     0.50     0.20     0.80        1     1.95
  C7               CIRCULAR             2.40     4.52     0.60     2.40        1    15.99
  C8               CIRCULAR             0.70     0.38     0.17     0.70        1     1.72
  C9               CIRCULAR             0.70     0.38     0.17     0.70        1     1.14
  C10              CIRCULAR             1.00     0.79     0.25     1.00        1     3.62
  C11              CIRCULAR             1.50     1.77     0.38     1.50        1     3.04
  C12              CIRCULAR             3.00     7.07     0.75     3.00        1    69.04
  C13              CIRCULAR             1.50     1.77     0.38     1.50        1    12.62
  C14              CIRCULAR             1.50     1.77     0.38     1.50        1     4.97
  C16              CIRCULAR             1.35     1.43     0.34     1.35        1     5.58
  C17              CIRCULAR             0.80     0.50     0.20     0.80        1     1.54
  C18              CIRCULAR             3.00     7.07     0.75     3.00        1    47.18
  C19              CIRCULAR             3.00     7.07     0.75     3.00        1    53.18
  C20              CIRCULAR             3.00     7.07     0.75     3.00        1    35.22
  C21              CIRCULAR             1.00     0.79     0.25     1.00        1     3.60
  C23              CIRCULAR             3.60    10.18     0.90     3.60        1    48.08
  C24              CIRCULAR             1.10     0.95     0.28     1.10        1     2.33
  C22              CIRCULAR             1.40     1.54     0.35     1.40        1     5.57
  
  
  
  *********************************************************
  NOTE: The summary statistics displayed in this report are
  based on results found at every computational time step,  
  not just on results from each reporting time step.
  *********************************************************
  
  ****************
  Analysis Options
  ****************
  Flow Units ............... CMS
  Process Models:
    Rainfall/Runoff ........ YES
    RDII ................... NO
    Snowmelt ............... NO
    Groundwater ............ NO
    Flow Routing ........... YES
    Ponding Allowed ........ NO
    Water Quality .......... NO
  Infiltration Method ...... HORTON
  Flow Routing Method ...... DYNWAVE
  Starting Date ............ 08/03/2005 07:05:00
  Ending Date .............. 08/03/2005 11:10:00
  Antecedent Dry Days ...... 0.0
  Report Time Step ......... 00:05:00
  Wet Time Step ............ 00:05:00
  Dry Time Step ............ 01:00:00
  Routing Time Step ........ 30.00 sec
  Variable Time Step ....... YES
  Maximum Trials ........... 8
  Number of Threads ........ 1
  Head Tolerance ........... 0.005000 m
  
  
  **************************        Volume         Depth
  Runoff Quantity Continuity     hectare-m            mm
  **************************     ---------       -------
  Total Precipitation ......         4.643        39.700
  Evaporation Loss .........         0.000         0.000
  Infiltration Loss ........         0.659         5.637
  Surface Runoff ...........         2.410        20.609
  Final Storage ............         1.597        13.657
  Continuity Error (%) .....        -0.511
  
  
  **************************        Volume        Volume
  Flow Routing Continuity        hectare-m      10^6 ltr
  **************************     ---------     ---------
  Dry Weather Inflow .......         0.000         0.000
  Wet Weather Inflow .......         2.388        23.883
  Groundwater Inflow .......         0.000         0.000
  RDII Inflow ..............         0.000         0.000
  External Inflow ..........         0.000         0.000
  External Outflow .........         2.313        23.134
  Flooding Loss ............         0.000         0.000
  Evaporation Loss .........         0.000         0.000
  Exfiltration Loss ........         0.000         0.000
  Initial Stored Volume ....         0.021         0.207
  Final Stored Volume ......         0.092         0.916
  Continuity Error (%) .....         0.165
  
  
  *************************
  Highest Continuity Errors
  *************************
  Node J21 (1.54%)
  Node J16 (1.16%)
  Node J18 (1.07%)
  Node J6 (1.04%)
  Node J3 (1.01%)
  
  
  ***************************
  Time-Step Critical Elements
  ***************************
  Link C14 (87.64%)
  
  
  ********************************
  Highest Flow Instability Indexes
  ********************************
  Link C3 (5)
  Link C9 (5)
  Link C21 (4)
  Link C4 (4)
  Link C1 (4)
  
  
  *************************
  Routing Time Step Summary
  *************************
  Minimum Time Step           :     4.92 sec
  Average Time Step           :    26.73 sec
  Maximum Time Step           :    30.00 sec
  Percent in Steady State     :    -0.00
  Average Iterations per Step :     2.00
  Percent Not Converging      :     0.00
  
  
  ***************************
  Subcatchment Runoff Summary
  ***************************
  
  --------------------------------------------------------------------------------------------------------
                            Total      Total      Total      Total      Total       Total     Peak  Runoff
                           Precip      Runon       Evap      Infil     Runoff      Runoff   Runoff   Coeff
  Subcatchment                 mm         mm         mm         mm         mm    10^6 ltr      CMS
  --------------------------------------------------------------------------------------------------------
  S1                        39.70       0.00       0.00       2.07      33.80        0.75     0.14   0.851
  S2                        39.70       0.00       0.00       5.16      22.81        1.65     0.25   0.575
  S3                        39.70       0.00       0.00       7.23      23.75        0.36     0.06   0.598
  S4                        39.70       0.00       0.00       8.26      14.03        0.87     0.11   0.353
  S5                        39.70       0.00       0.00       8.26      12.25        1.14     0.15   0.309
  S6                        39.70       0.00       0.00       4.13      25.81        1.80     0.27   0.650
  S7                        39.70       0.00       0.00       6.20      23.26        0.76     0.12   0.586
  S8                        39.70       0.00       0.00       3.10      26.61        2.84     0.40   0.670
  S9                        39.70       0.00       0.00       7.23      13.44        2.21     0.31   0.339
  S10                       39.70       0.00       0.00       6.20      24.03        0.66     0.10   0.605
  S11                       39.70       0.00       0.00       6.20      21.16        1.96     0.29   0.533
  S12                       39.70       0.00       0.00       4.13      24.03        2.54     0.36   0.605
  S13                       39.70       0.00       0.00       4.13      25.21        2.54     0.38   0.635
  S14                       39.70       0.00       0.00       6.20      17.85        2.06     0.29   0.450
  S15                       39.70       0.00       0.00       5.16      21.93        1.96     0.28   0.552
  
  
  ******************
  Node Depth Summary
  ******************
  
  ---------------------------------------------------------------------------------
                                 Average  Maximum  Maximum  Time of Max    Reported
                                   Depth    Depth      HGL   Occurrence   Max Depth
  Node                 Type       Meters   Meters   Meters  days hr:min      Meters
  ---------------------------------------------------------------------------------
  J0                   JUNCTION     0.12     0.18    31.17     0  01:00        0.18
  J1                   JUNCTION     0.09     0.15    29.14     0  01:00        0.15
  J2                   JUNCTION     0.17     0.27    26.26     0  01:04        0.27
  J3                   JUNCTION     0.06     0.09    31.08     0  01:02        0.09
  J4                   JUNCTION     0.06     0.10    34.09     0  01:00        0.09
  J5                   JUNCTION     0.13     0.20    29.19     0  01:00        0.20
  J6                   JUNCTION     0.26     0.39    24.18     0  01:06        0.38
  J7                   JUNCTION     0.10     0.14    28.53     0  01:00        0.14
  J8                   JUNCTION     0.10     0.15    30.14     0  01:00        0.15
  J9                   JUNCTION     0.11     0.16    28.85     0  01:02        0.16
  J10                  JUNCTION     0.21     0.31    26.30     0  01:02        0.31
  J11                  JUNCTION     0.27     0.41    26.10     0  01:05        0.41
  J12                  JUNCTION     0.18     0.27    23.06     0  01:07        0.27
  J13                  JUNCTION     0.23     0.35    25.64     0  01:06        0.35
  J14                  JUNCTION     0.15     0.22    24.81     0  01:05        0.22
  J15                  JUNCTION     0.18     0.27    24.46     0  01:01        0.27
  J16                  JUNCTION     0.14     0.20    23.59     0  01:05        0.20
  J17                  JUNCTION     0.20     0.31    22.40     0  01:06        0.30
  J18                  JUNCTION     0.44     0.65    16.65     0  01:08        0.65
  J20                  JUNCTION     0.22     0.32    18.02     0  01:08        0.32
  J21                  JUNCTION     0.21     0.31    19.31     0  01:07        0.30
  J23                  JUNCTION     0.13     0.19    22.48     0  01:00        0.19
  J24                  JUNCTION     0.18     0.27    21.16     0  01:05        0.27
  J25                  JUNCTION     0.09     0.13    30.32     0  01:01        0.13
  J19                  OUTFALL      0.43     0.65    16.15     0  01:09        0.65
  
  
  *******************
  Node Inflow Summary
  *******************
  
  -------------------------------------------------------------------------------------------------
                                  Maximum  Maximum                  Lateral       Total        Flow
                                  Lateral    Total  Time of Max      Inflow      Inflow     Balance
                                   Inflow   Inflow   Occurrence      Volume      Volume       Error
  Node                 Type           CMS      CMS  days hr:min    10^6 ltr    10^6 ltr     Percent
  -------------------------------------------------------------------------------------------------
  J0                   JUNCTION     0.246    0.246     0  01:00        1.64        1.64      -0.263
  J1                   JUNCTION     0.142    0.142     0  01:00       0.743       0.742       0.113
  J2                   JUNCTION     0.000    0.439     0  01:01           0        2.74       0.575
  J3                   JUNCTION     0.000    0.059     0  01:00           0        0.36       1.017
  J4                   JUNCTION     0.059    0.059     0  01:00       0.361        0.36       0.062
  J5                   JUNCTION     0.271    0.271     0  01:00        1.79        1.79       0.255
  J6                   JUNCTION     0.000    0.845     0  01:04           0        5.63       1.048
  J7                   JUNCTION     0.153    0.153     0  01:00        1.12        1.12       0.263
  J8                   JUNCTION     0.115    0.115     0  01:00       0.858       0.857       0.224
  J9                   JUNCTION     0.104    0.218     0  01:00       0.652        1.51       0.562
  J10                  JUNCTION     0.293    0.293     0  01:00        1.95        1.94       0.662
  J11                  JUNCTION     0.403    0.798     0  01:03        2.82         5.5       0.932
  J12                  JUNCTION     0.000    1.141     0  01:06           0        7.75       0.456
  J13                  JUNCTION     0.000    0.794     0  01:05           0        5.45       0.686
  J14                  JUNCTION     0.306    0.306     0  01:05        2.19        2.19       0.504
  J15                  JUNCTION     0.291    0.291     0  01:05        2.04        2.04       0.384
  J16                  JUNCTION     0.000    0.507     0  01:02           0        3.53       1.171
  J17                  JUNCTION     0.363    1.155     0  01:05        2.52        7.94       0.517
  J18                  JUNCTION     0.000    3.405     0  01:07           0        23.4       1.086
  J20                  JUNCTION     0.000    1.132     0  01:06           0        7.85       0.898
  J21                  JUNCTION     0.000    0.778     0  01:05           0        5.42       1.559
  J23                  JUNCTION     0.284    0.284     0  01:05        1.94        1.94       0.188
  J24                  JUNCTION     0.375    0.375     0  01:05        2.52        2.52       0.348
  J25                  JUNCTION     0.119    0.119     0  01:00       0.757       0.757       0.403
  J19                  OUTFALL      0.000    3.398     0  01:09           0        23.1       0.000
  
  
  **********************
  Node Surcharge Summary
  **********************
  
  No nodes were surcharged.
  
  
  *********************
  Node Flooding Summary
  *********************
  
  No nodes were flooded.
  
  
  ***********************
  Outfall Loading Summary
  ***********************
  
  -----------------------------------------------------------
                         Flow       Avg       Max       Total
                         Freq      Flow      Flow      Volume
  Outfall Node           Pcnt       CMS       CMS    10^6 ltr
  -----------------------------------------------------------
  J19                  100.00     1.628     3.398      23.134
  -----------------------------------------------------------
  System               100.00     1.628     3.398      23.134
  
  
  ********************
  Link Flow Summary
  ********************
  
  -----------------------------------------------------------------------------
                                 Maximum  Time of Max   Maximum    Max/    Max/
                                  |Flow|   Occurrence   |Veloc|    Full    Full
  Link                 Type          CMS  days hr:min     m/sec    Flow   Depth
  -----------------------------------------------------------------------------
  C0                   CONDUIT     0.246     0  01:00      4.43    0.15    0.32
  C1                   CONDUIT     0.142     0  01:00      1.93    0.14    0.34
  C2                   CONDUIT     0.055     0  01:02      0.86    0.03    0.22
  C3                   CONDUIT     0.059     0  01:00      2.17    0.05    0.15
  C4                   CONDUIT     0.429     0  01:04      1.74    0.11    0.27
  C5                   CONDUIT     0.271     0  01:01      1.93    0.17    0.41
  C6                   CONDUIT     0.116     0  01:01      1.07    0.06    0.33
  C7                   CONDUIT     0.838     0  01:07      2.27    0.05    0.14
  C8                   CONDUIT     0.153     0  01:00      1.79    0.09    0.37
  C9                   CONDUIT     0.115     0  01:00      1.79    0.10    0.22
  C10                  CONDUIT     0.214     0  01:02      2.43    0.06    0.18
  C11                  CONDUIT     0.286     0  01:02      0.89    0.09    0.24
  C12                  CONDUIT     1.132     0  01:07      2.59    0.02    0.15
  C13                  CONDUIT     1.152     0  01:06      2.43    0.09    0.32
  C14                  CONDUIT     0.794     0  01:05      2.28    0.16    0.25
  C16                  CONDUIT     0.795     0  01:06      2.95    0.14    0.24
  C17                  CONDUIT     0.375     0  01:05      2.38    0.24    0.37
  C18                  CONDUIT     1.125     0  01:08      1.53    0.02    0.16
  C19                  CONDUIT     0.495     0  01:05      1.75    0.01    0.08
  C20                  CONDUIT     0.763     0  01:07      1.95    0.02    0.10
  C21                  CONDUIT     0.284     0  01:01      2.32    0.08    0.25
  C23                  CONDUIT     3.398     0  01:09      3.66    0.07    0.18
  C24                  CONDUIT     0.293     0  01:02      1.98    0.13    0.22
  C22                  CONDUIT     0.305     0  01:05      1.80    0.05    0.17
  
  
  ***************************
  Flow Classification Summary
  ***************************
  
  -------------------------------------------------------------------------------------
                      Adjusted    ---------- Fraction of Time in Flow Class ---------- 
                       /Actual         Up    Down  Sub   Sup   Up    Down  Norm  Inlet 
  Conduit               Length    Dry  Dry   Dry   Crit  Crit  Crit  Crit  Ltd   Ctrl  
  -------------------------------------------------------------------------------------
  C0                      1.00   0.00  0.00  0.00  0.04  0.96  0.00  0.00  1.00  0.00
  C1                      1.00   0.00  0.02  0.00  0.40  0.57  0.00  0.00  0.98  0.00
  C2                      1.00   0.00  0.03  0.00  0.97  0.00  0.00  0.00  0.97  0.00
  C3                      1.00   0.02  0.00  0.00  0.01  0.97  0.00  0.00  0.80  0.00
  C4                      1.00   0.00  0.00  0.00  0.28  0.72  0.00  0.00  1.00  0.00
  C5                      1.00   0.00  0.02  0.00  0.03  0.94  0.00  0.00  0.98  0.00
  C6                      1.00   0.02  0.00  0.00  0.95  0.03  0.00  0.00  0.98  0.00
  C7                      1.00   0.00  0.00  0.00  0.00  1.00  0.00  0.00  0.00  0.00
  C8                      1.00   0.00  0.02  0.00  0.89  0.08  0.00  0.00  0.98  0.00
  C9                      1.00   0.02  0.00  0.00  0.02  0.95  0.00  0.00  0.97  0.00
  C10                     1.00   0.02  0.00  0.00  0.01  0.97  0.00  0.00  0.93  0.00
  C11                     1.00   0.02  0.00  0.00  0.98  0.00  0.00  0.00  0.91  0.00
  C12                     1.00   0.00  0.00  0.00  0.88  0.12  0.00  0.00  0.99  0.00
  C13                     1.00   0.00  0.02  0.00  0.04  0.93  0.00  0.00  0.98  0.00
  C14                     1.00   0.02  0.00  0.00  0.03  0.95  0.00  0.00  0.38  0.00
  C16                     1.00   0.02  0.00  0.00  0.05  0.92  0.00  0.00  0.05  0.00
  C17                     1.00   0.02  0.00  0.00  0.02  0.96  0.00  0.00  0.90  0.00
  C18                     1.00   0.00  0.03  0.00  0.97  0.01  0.00  0.00  0.97  0.00
  C19                     1.00   0.02  0.00  0.00  0.04  0.94  0.00  0.00  0.97  0.00
  C20                     1.00   0.02  0.00  0.00  0.05  0.92  0.00  0.00  0.78  0.00
  C21                     1.00   0.02  0.00  0.00  0.01  0.96  0.00  0.00  0.94  0.00
  C23                     1.00   0.00  0.00  0.00  0.01  0.99  0.00  0.00  0.43  0.00
  C24                     1.00   0.02  0.00  0.00  0.02  0.95  0.00  0.00  0.00  0.00
  C22                     1.00   0.00  0.02  0.00  0.04  0.94  0.00  0.00  0.94  0.00
  
  
  *************************
  Conduit Surcharge Summary
  *************************
  
  No conduits were surcharged.
  
  
  ********************
  Subcatchment Results
  ********************
  
  <<< Subcatchment S1 >>>
  ---------------------------------------------------
  Date        Time        Precip.    Losses    Runoff
                            mm/hr     mm/hr       CMS
  ---------------------------------------------------
   08/03/2005 07:10:00      3.600     0.662    0.0000
   08/03/2005 07:15:00     30.000     5.123    0.0002
   08/03/2005 07:20:00     45.600     3.115    0.0138
   08/03/2005 07:25:00     24.000     0.960    0.0774
   08/03/2005 07:30:00     27.600     1.104    0.0932
   08/03/2005 07:35:00     13.200     0.528    0.1122
   08/03/2005 07:40:00     13.200     0.528    0.0946
   08/03/2005 07:45:00     15.600     0.624    0.0851
   08/03/2005 07:50:00     18.000     0.720    0.0845
   08/03/2005 07:55:00     13.200     0.528    0.0894
   08/03/2005 08:00:00     42.000     1.680    0.0834
   08/03/2005 08:05:00     20.400     0.816    0.1418
   08/03/2005 08:10:00     12.000     0.480    0.1303
   08/03/2005 08:15:00      1.200     0.048    0.1062
   08/03/2005 08:20:00      0.000     0.000    0.0720
   08/03/2005 08:25:00      1.200     0.048    0.0505
   08/03/2005 08:30:00     14.400     0.576    0.0391
   08/03/2005 08:35:00      3.600     0.144    0.0517
   08/03/2005 08:40:00      1.200     0.048    0.0435
   08/03/2005 08:45:00      0.000     0.000    0.0344
   08/03/2005 08:50:00      2.400     0.096    0.0267
   08/03/2005 08:55:00      3.600     0.144    0.0242
   08/03/2005 09:00:00     14.400     0.576    0.0238
   08/03/2005 09:05:00     20.400     0.816    0.0384
   08/03/2005 09:10:00      1.200     0.048    0.0613
   08/03/2005 09:15:00      0.000     0.000    0.0456
   08/03/2005 09:20:00      0.000     0.000    0.0339
   08/03/2005 09:25:00      0.000     0.000    0.0261
   08/03/2005 09:30:00      0.000     0.000    0.0208
   08/03/2005 09:35:00     10.800     0.432    0.0169
   08/03/2005 09:40:00     10.800     0.432    0.0268
   08/03/2005 09:45:00      7.200     0.288    0.0356
   08/03/2005 09:50:00     19.200     0.768    0.0373
   08/03/2005 09:55:00     19.200     0.768    0.0582
   08/03/2005 10:00:00     12.000     0.480    0.0747
   08/03/2005 10:05:00      8.400     0.336    0.0728
   08/03/2005 10:10:00      9.600     0.384    0.0650
   08/03/2005 10:15:00      6.000     0.240    0.0621
   08/03/2005 10:20:00      1.200     0.048    0.0541
   08/03/2005 10:25:00      2.400     0.096    0.0412
   08/03/2005 10:30:00      2.400     0.096    0.0345
   08/03/2005 10:35:00      3.600     0.144    0.0299
   08/03/2005 10:40:00      2.400     0.096    0.0281
   08/03/2005 10:45:00      3.600     0.144    0.0252
   08/03/2005 10:50:00      4.800     0.192    0.0245
   08/03/2005 10:55:00      2.400     0.096    0.0255
   08/03/2005 11:00:00      6.000     0.240    0.0232
   08/03/2005 11:05:00      2.400     0.096    0.0260
   08/03/2005 11:10:00      2.400     0.096    0.0235
  
  
  <<< Subcatchment S2 >>>
  ---------------------------------------------------
  Date        Time        Precip.    Losses    Runoff
                            mm/hr     mm/hr       CMS
  ---------------------------------------------------
   08/03/2005 07:10:00      3.600     1.656    0.0000
   08/03/2005 07:15:00     30.000    12.806    0.0000
   08/03/2005 07:20:00     45.600     7.786    0.0144
   08/03/2005 07:25:00     24.000     2.400    0.0886
   08/03/2005 07:30:00     27.600     2.760    0.1238
   08/03/2005 07:35:00     13.200     1.320    0.1646
   08/03/2005 07:40:00     13.200     1.320    0.1579
   08/03/2005 07:45:00     15.600     1.560    0.1536
   08/03/2005 07:50:00     18.000     1.800    0.1574
   08/03/2005 07:55:00     13.200     1.320    0.1676
   08/03/2005 08:00:00     42.000     4.200    0.1626
   08/03/2005 08:05:00     20.400     2.040    0.2457
   08/03/2005 08:10:00     12.000     1.200    0.2426
   08/03/2005 08:15:00      1.200     0.120    0.2156
   08/03/2005 08:20:00      0.000     0.000    0.1669
   08/03/2005 08:25:00      1.200     0.120    0.1312
   08/03/2005 08:30:00     14.400     1.440    0.1093
   08/03/2005 08:35:00      3.600     0.360    0.1244
   08/03/2005 08:40:00      1.200     0.120    0.1106
   08/03/2005 08:45:00      0.000     0.000    0.0949
   08/03/2005 08:50:00      2.400     0.240    0.0807
   08/03/2005 08:55:00      3.600     0.360    0.0746
   08/03/2005 09:00:00     14.400     1.440    0.0721
   08/03/2005 09:05:00     20.400     2.040    0.0924
   08/03/2005 09:10:00      1.200     0.120    0.1253
   08/03/2005 09:15:00      0.000     0.000    0.1070
   08/03/2005 09:20:00      0.000     0.000    0.0908
   08/03/2005 09:25:00      0.000     0.000    0.0786
   08/03/2005 09:30:00      0.000     0.000    0.0691
   08/03/2005 09:35:00     10.800     1.080    0.0616
   08/03/2005 09:40:00     10.800     1.080    0.0753
   08/03/2005 09:45:00      7.200     0.720    0.0880
   08/03/2005 09:50:00     19.200     1.920    0.0915
   08/03/2005 09:55:00     19.200     1.920    0.1220
   08/03/2005 10:00:00     12.000     1.200    0.1495
   08/03/2005 10:05:00      8.400     0.840    0.1536
   08/03/2005 10:10:00      9.600     0.960    0.1477
   08/03/2005 10:15:00      6.000     0.600    0.1466
   08/03/2005 10:20:00      1.200     0.120    0.1369
   08/03/2005 10:25:00      2.400     0.240    0.1183
   08/03/2005 10:30:00      2.400     0.240    0.1070
   08/03/2005 10:35:00      3.600     0.360    0.0982
   08/03/2005 10:40:00      2.400     0.240    0.0938
   08/03/2005 10:45:00      3.600     0.360    0.0878
   08/03/2005 10:50:00      4.800     0.480    0.0852
   08/03/2005 10:55:00      2.400     0.240    0.0855
   08/03/2005 11:00:00      6.000     0.600    0.0810
   08/03/2005 11:05:00      2.400     0.240    0.0842
   08/03/2005 11:10:00      2.400     0.240    0.0800
  
  
  <<< Subcatchment S3 >>>
  ---------------------------------------------------
  Date        Time        Precip.    Losses    Runoff
                            mm/hr     mm/hr       CMS
  ---------------------------------------------------
   08/03/2005 07:10:00      3.600     2.318    0.0000
   08/03/2005 07:15:00     30.000    17.929    0.0002
   08/03/2005 07:20:00     45.600    10.901    0.0111
   08/03/2005 07:25:00     24.000     3.360    0.0439
   08/03/2005 07:30:00     27.600     3.864    0.0343
   08/03/2005 07:35:00     13.200     1.848    0.0368
   08/03/2005 07:40:00     13.200     1.848    0.0253
   08/03/2005 07:45:00     15.600     2.184    0.0229
   08/03/2005 07:50:00     18.000     2.520    0.0253
   08/03/2005 07:55:00     13.200     1.848    0.0296
   08/03/2005 08:00:00     42.000     5.880    0.0277
   08/03/2005 08:05:00     20.400     2.856    0.0592
   08/03/2005 08:10:00     12.000     1.680    0.0486
   08/03/2005 08:15:00      1.200     0.168    0.0390
   08/03/2005 08:20:00      0.000     0.000    0.0266
   08/03/2005 08:25:00      1.200     0.168    0.0208
   08/03/2005 08:30:00     14.400     2.016    0.0185
   08/03/2005 08:35:00      3.600     0.504    0.0274
   08/03/2005 08:40:00      1.200     0.168    0.0235
   08/03/2005 08:45:00      0.000     0.000    0.0197
   08/03/2005 08:50:00      2.400     0.336    0.0167
   08/03/2005 08:55:00      3.600     0.504    0.0162
   08/03/2005 09:00:00     14.400     2.016    0.0165
   08/03/2005 09:05:00     20.400     2.856    0.0255
   08/03/2005 09:10:00      1.200     0.168    0.0374
   08/03/2005 09:15:00      0.000     0.000    0.0252
   08/03/2005 09:20:00      0.000     0.000    0.0195
   08/03/2005 09:25:00      0.000     0.000    0.0165
   08/03/2005 09:30:00      0.000     0.000    0.0145
   08/03/2005 09:35:00     10.800     1.512    0.0131
   08/03/2005 09:40:00     10.800     1.512    0.0192
   08/03/2005 09:45:00      7.200     1.008    0.0240
   08/03/2005 09:50:00     19.200     2.688    0.0237
   08/03/2005 09:55:00     19.200     2.688    0.0350
   08/03/2005 10:00:00     12.000     1.680    0.0411
   08/03/2005 10:05:00      8.400     1.176    0.0373
   08/03/2005 10:10:00      9.600     1.344    0.0330
   08/03/2005 10:15:00      6.000     0.840    0.0325
   08/03/2005 10:20:00      1.200     0.168    0.0292
   08/03/2005 10:25:00      2.400     0.336    0.0236
   08/03/2005 10:30:00      2.400     0.336    0.0215
   08/03/2005 10:35:00      3.600     0.504    0.0200
   08/03/2005 10:40:00      2.400     0.336    0.0198
   08/03/2005 10:45:00      3.600     0.504    0.0186
   08/03/2005 10:50:00      4.800     0.672    0.0185
   08/03/2005 10:55:00      2.400     0.336    0.0192
   08/03/2005 11:00:00      6.000     0.840    0.0177
   08/03/2005 11:05:00      2.400     0.336    0.0194
   08/03/2005 11:10:00      2.400     0.336    0.0176
  
  
  <<< Subcatchment S4 >>>
  ---------------------------------------------------
  Date        Time        Precip.    Losses    Runoff
                            mm/hr     mm/hr       CMS
  ---------------------------------------------------
   08/03/2005 07:10:00      3.600     2.650    0.0000
   08/03/2005 07:15:00     30.000    20.490    0.0000
   08/03/2005 07:20:00     45.600    12.458    0.0133
   08/03/2005 07:25:00     24.000     3.840    0.0698
   08/03/2005 07:30:00     27.600     4.416    0.0761
   08/03/2005 07:35:00     13.200     2.112    0.0871
   08/03/2005 07:40:00     13.200     2.112    0.0690
   08/03/2005 07:45:00     15.600     2.496    0.0609
   08/03/2005 07:50:00     18.000     2.880    0.0615
   08/03/2005 07:55:00     13.200     2.112    0.0668
   08/03/2005 08:00:00     42.000     6.720    0.0630
   08/03/2005 08:05:00     20.400     3.264    0.1149
   08/03/2005 08:10:00     12.000     1.920    0.1048
   08/03/2005 08:15:00      1.200     0.192    0.0867
   08/03/2005 08:20:00      0.000     0.000    0.0612
   08/03/2005 08:25:00      1.200     0.192    0.0468
   08/03/2005 08:30:00     14.400     2.304    0.0402
   08/03/2005 08:35:00      3.600     0.576    0.0537
   08/03/2005 08:40:00      1.200     0.192    0.0484
   08/03/2005 08:45:00      0.000     0.000    0.0422
   08/03/2005 08:50:00      2.400     0.384    0.0368
   08/03/2005 08:55:00      3.600     0.576    0.0359
   08/03/2005 09:00:00     14.400     2.304    0.0366
   08/03/2005 09:05:00     20.400     3.264    0.0510
   08/03/2005 09:10:00      1.200     0.192    0.0730
   08/03/2005 09:15:00      0.000     0.000    0.0587
   08/03/2005 09:20:00      0.000     0.000    0.0490
   08/03/2005 09:25:00      0.000     0.000    0.0430
   08/03/2005 09:30:00      0.000     0.000    0.0391
   08/03/2005 09:35:00     10.800     1.728    0.0362
   08/03/2005 09:40:00     10.800     1.728    0.0461
   08/03/2005 09:45:00      7.200     1.152    0.0550
   08/03/2005 09:50:00     19.200     3.072    0.0570
   08/03/2005 09:55:00     19.200     3.072    0.0772
   08/03/2005 10:00:00     12.000     1.920    0.0926
   08/03/2005 10:05:00      8.400     1.344    0.0910
   08/03/2005 10:10:00      9.600     1.536    0.0850
   08/03/2005 10:15:00      6.000     0.960    0.0841
   08/03/2005 10:20:00      1.200     0.192    0.0784
   08/03/2005 10:25:00      2.400     0.384    0.0682
   08/03/2005 10:30:00      2.400     0.384    0.0635
   08/03/2005 10:35:00      3.600     0.576    0.0604
   08/03/2005 10:40:00      2.400     0.384    0.0596
   08/03/2005 10:45:00      3.600     0.576    0.0575
   08/03/2005 10:50:00      4.800     0.768    0.0574
   08/03/2005 10:55:00      2.400     0.384    0.0588
   08/03/2005 11:00:00      6.000     0.960    0.0568
   08/03/2005 11:05:00      2.400     0.384    0.0598
   08/03/2005 11:10:00      2.400     0.384    0.0575
  
  
  <<< Subcatchment S5 >>>
  ---------------------------------------------------
  Date        Time        Precip.    Losses    Runoff
                            mm/hr     mm/hr       CMS
  ---------------------------------------------------
   08/03/2005 07:10:00      3.600     2.650    0.0000
   08/03/2005 07:15:00     30.000    20.490    0.0000
   08/03/2005 07:20:00     45.600    12.458    0.0138
   08/03/2005 07:25:00     24.000     3.840    0.0783
   08/03/2005 07:30:00     27.600     4.416    0.0955
   08/03/2005 07:35:00     13.200     2.112    0.1158
   08/03/2005 07:40:00     13.200     2.112    0.0988
   08/03/2005 07:45:00     15.600     2.496    0.0897
   08/03/2005 07:50:00     18.000     2.880    0.0897
   08/03/2005 07:55:00     13.200     2.112    0.0956
   08/03/2005 08:00:00     42.000     6.720    0.0906
   08/03/2005 08:05:00     20.400     3.264    0.1527
   08/03/2005 08:10:00     12.000     1.920    0.1441
   08/03/2005 08:15:00      1.200     0.192    0.1221
   08/03/2005 08:20:00      0.000     0.000    0.0886
   08/03/2005 08:25:00      1.200     0.192    0.0676
   08/03/2005 08:30:00     14.400     2.304    0.0568
   08/03/2005 08:35:00      3.600     0.576    0.0716
   08/03/2005 08:40:00      1.200     0.192    0.0643
   08/03/2005 08:45:00      0.000     0.000    0.0557
   08/03/2005 08:50:00      2.400     0.384    0.0482
   08/03/2005 08:55:00      3.600     0.576    0.0462
   08/03/2005 09:00:00     14.400     2.304    0.0465
   08/03/2005 09:05:00     20.400     3.264    0.0633
   08/03/2005 09:10:00      1.200     0.192    0.0896
   08/03/2005 09:15:00      0.000     0.000    0.0744
   08/03/2005 09:20:00      0.000     0.000    0.0629
   08/03/2005 09:25:00      0.000     0.000    0.0552
   08/03/2005 09:30:00      0.000     0.000    0.0498
   08/03/2005 09:35:00     10.800     1.728    0.0458
   08/03/2005 09:40:00     10.800     1.728    0.0574
   08/03/2005 09:45:00      7.200     1.152    0.0680
   08/03/2005 09:50:00     19.200     3.072    0.0709
   08/03/2005 09:55:00     19.200     3.072    0.0952
   08/03/2005 10:00:00     12.000     1.920    0.1154
   08/03/2005 10:05:00      8.400     1.344    0.1159
   08/03/2005 10:10:00      9.600     1.536    0.1099
   08/03/2005 10:15:00      6.000     0.960    0.1089
   08/03/2005 10:20:00      1.200     0.192    0.1020
   08/03/2005 10:25:00      2.400     0.384    0.0892
   08/03/2005 10:30:00      2.400     0.384    0.0827
   08/03/2005 10:35:00      3.600     0.576    0.0781
   08/03/2005 10:40:00      2.400     0.384    0.0767
   08/03/2005 10:45:00      3.600     0.576    0.0738
   08/03/2005 10:50:00      4.800     0.768    0.0734
   08/03/2005 10:55:00      2.400     0.384    0.0749
   08/03/2005 11:00:00      6.000     0.960    0.0726
   08/03/2005 11:05:00      2.400     0.384    0.0762
   08/03/2005 11:10:00      2.400     0.384    0.0737
  
  
  <<< Subcatchment S6 >>>
  ---------------------------------------------------
  Date        Time        Precip.    Losses    Runoff
                            mm/hr     mm/hr       CMS
  ---------------------------------------------------
   08/03/2005 07:10:00      3.600     1.325    0.0000
   08/03/2005 07:15:00     30.000    10.245    0.0000
   08/03/2005 07:20:00     45.600     6.229    0.0145
   08/03/2005 07:25:00     24.000     1.920    0.0902
   08/03/2005 07:30:00     27.600     2.208    0.1288
   08/03/2005 07:35:00     13.200     1.056    0.1743
   08/03/2005 07:40:00     13.200     1.056    0.1709
   08/03/2005 07:45:00     15.600     1.248    0.1688
   08/03/2005 07:50:00     18.000     1.440    0.1746
   08/03/2005 07:55:00     13.200     1.056    0.1867
   08/03/2005 08:00:00     42.000     3.360    0.1825
   08/03/2005 08:05:00     20.400     1.632    0.2710
   08/03/2005 08:10:00     12.000     0.960    0.2700
   08/03/2005 08:15:00      1.200     0.096    0.2426
   08/03/2005 08:20:00      0.000     0.000    0.1908
   08/03/2005 08:25:00      1.200     0.096    0.1516
   08/03/2005 08:30:00     14.400     1.152    0.1268
   08/03/2005 08:35:00      3.600     0.288    0.1418
   08/03/2005 08:40:00      1.200     0.096    0.1260
   08/03/2005 08:45:00      0.000     0.000    0.1083
   08/03/2005 08:50:00      2.400     0.192    0.0920
   08/03/2005 08:55:00      3.600     0.288    0.0846
   08/03/2005 09:00:00     14.400     1.152    0.0811
   08/03/2005 09:05:00     20.400     1.632    0.1020
   08/03/2005 09:10:00      1.200     0.096    0.1364
   08/03/2005 09:15:00      0.000     0.000    0.1170
   08/03/2005 09:20:00      0.000     0.000    0.0994
   08/03/2005 09:25:00      0.000     0.000    0.0859
   08/03/2005 09:30:00      0.000     0.000    0.0753
   08/03/2005 09:35:00     10.800     0.864    0.0667
   08/03/2005 09:40:00     10.800     0.864    0.0809
   08/03/2005 09:45:00      7.200     0.576    0.0939
   08/03/2005 09:50:00     19.200     1.536    0.0974
   08/03/2005 09:55:00     19.200     1.536    0.1293
   08/03/2005 10:00:00     12.000     0.960    0.1583
   08/03/2005 10:05:00      8.400     0.672    0.1632
   08/03/2005 10:10:00      9.600     0.768    0.1575
   08/03/2005 10:15:00      6.000     0.480    0.1564
   08/03/2005 10:20:00      1.200     0.096    0.1461
   08/03/2005 10:25:00      2.400     0.192    0.1262
   08/03/2005 10:30:00      2.400     0.192    0.1137
   08/03/2005 10:35:00      3.600     0.288    0.1039
   08/03/2005 10:40:00      2.400     0.192    0.0987
   08/03/2005 10:45:00      3.600     0.288    0.0918
   08/03/2005 10:50:00      4.800     0.384    0.0886
   08/03/2005 10:55:00      2.400     0.192    0.0885
   08/03/2005 11:00:00      6.000     0.480    0.0834
   08/03/2005 11:05:00      2.400     0.192    0.0864
   08/03/2005 11:10:00      2.400     0.192    0.0816
  
  
  <<< Subcatchment S7 >>>
  ---------------------------------------------------
  Date        Time        Precip.    Losses    Runoff
                            mm/hr     mm/hr       CMS
  ---------------------------------------------------
   08/03/2005 07:10:00      3.600     1.987    0.0000
   08/03/2005 07:15:00     30.000    15.368    0.0000
   08/03/2005 07:20:00     45.600     9.344    0.0134
   08/03/2005 07:25:00     24.000     2.880    0.0712
   08/03/2005 07:30:00     27.600     3.312    0.0790
   08/03/2005 07:35:00     13.200     1.584    0.0912
   08/03/2005 07:40:00     13.200     1.584    0.0729
   08/03/2005 07:45:00     15.600     1.872    0.0645
   08/03/2005 07:50:00     18.000     2.160    0.0648
   08/03/2005 07:55:00     13.200     1.584    0.0700
   08/03/2005 08:00:00     42.000     5.040    0.0658
   08/03/2005 08:05:00     20.400     2.448    0.1186
   08/03/2005 08:10:00     12.000     1.440    0.1081
   08/03/2005 08:15:00      1.200     0.144    0.0888
   08/03/2005 08:20:00      0.000     0.000    0.0616
   08/03/2005 08:25:00      1.200     0.144    0.0458
   08/03/2005 08:30:00     14.400     1.728    0.0382
   08/03/2005 08:35:00      3.600     0.432    0.0512
   08/03/2005 08:40:00      1.200     0.144    0.0452
   08/03/2005 08:45:00      0.000     0.000    0.0382
   08/03/2005 08:50:00      2.400     0.288    0.0321
   08/03/2005 08:55:00      3.600     0.432    0.0306
   08/03/2005 09:00:00     14.400     1.728    0.0308
   08/03/2005 09:05:00     20.400     2.448    0.0449
   08/03/2005 09:10:00      1.200     0.144    0.0664
   08/03/2005 09:15:00      0.000     0.000    0.0515
   08/03/2005 09:20:00      0.000     0.000    0.0411
   08/03/2005 09:25:00      0.000     0.000    0.0346
   08/03/2005 09:30:00      0.000     0.000    0.0301
   08/03/2005 09:35:00     10.800     1.296    0.0268
   08/03/2005 09:40:00     10.800     1.296    0.0362
   08/03/2005 09:45:00      7.200     0.864    0.0447
   08/03/2005 09:50:00     19.200     2.304    0.0461
   08/03/2005 09:55:00     19.200     2.304    0.0657
   08/03/2005 10:00:00     12.000     1.440    0.0806
   08/03/2005 10:05:00      8.400     1.008    0.0782
   08/03/2005 10:10:00      9.600     1.152    0.0713
   08/03/2005 10:15:00      6.000     0.720    0.0694
   08/03/2005 10:20:00      1.200     0.144    0.0628
   08/03/2005 10:25:00      2.400     0.288    0.0518
   08/03/2005 10:30:00      2.400     0.288    0.0464
   08/03/2005 10:35:00      3.600     0.432    0.0427
   08/03/2005 10:40:00      2.400     0.288    0.0414
   08/03/2005 10:45:00      3.600     0.432    0.0389
   08/03/2005 10:50:00      4.800     0.576    0.0383
   08/03/2005 10:55:00      2.400     0.288    0.0393
   08/03/2005 11:00:00      6.000     0.720    0.0371
   08/03/2005 11:05:00      2.400     0.288    0.0396
   08/03/2005 11:10:00      2.400     0.288    0.0371
  
  
  <<< Subcatchment S8 >>>
  ---------------------------------------------------
  Date        Time        Precip.    Losses    Runoff
                            mm/hr     mm/hr       CMS
  ---------------------------------------------------
   08/03/2005 07:10:00      3.600     0.994    0.0000
   08/03/2005 07:15:00     30.000     7.684    0.0000
   08/03/2005 07:20:00     45.600     4.672    0.0147
   08/03/2005 07:25:00     24.000     1.440    0.0951
   08/03/2005 07:30:00     27.600     1.656    0.1451
   08/03/2005 07:35:00     13.200     0.792    0.2079
   08/03/2005 07:40:00     13.200     0.792    0.2194
   08/03/2005 07:45:00     15.600     0.936    0.2296
   08/03/2005 07:50:00     18.000     1.080    0.2471
   08/03/2005 07:55:00     13.200     0.792    0.2711
   08/03/2005 08:00:00     42.000     2.520    0.2748
   08/03/2005 08:05:00     20.400     1.224    0.3900
   08/03/2005 08:10:00     12.000     0.720    0.4031
   08/03/2005 08:15:00      1.200     0.072    0.3800
   08/03/2005 08:20:00      0.000     0.000    0.3199
   08/03/2005 08:25:00      1.200     0.072    0.2693
   08/03/2005 08:30:00     14.400     0.864    0.2337
   08/03/2005 08:35:00      3.600     0.216    0.2496
   08/03/2005 08:40:00      1.200     0.072    0.2263
   08/03/2005 08:45:00      0.000     0.000    0.1997
   08/03/2005 08:50:00      2.400     0.144    0.1744
   08/03/2005 08:55:00      3.600     0.216    0.1607
   08/03/2005 09:00:00     14.400     0.864    0.1525
   08/03/2005 09:05:00     20.400     1.224    0.1773
   08/03/2005 09:10:00      1.200     0.072    0.2196
   08/03/2005 09:15:00      0.000     0.000    0.1951
   08/03/2005 09:20:00      0.000     0.000    0.1713
   08/03/2005 09:25:00      0.000     0.000    0.1518
   08/03/2005 09:30:00      0.000     0.000    0.1355
   08/03/2005 09:35:00     10.800     0.648    0.1218
   08/03/2005 09:40:00     10.800     0.648    0.1384
   08/03/2005 09:45:00      7.200     0.432    0.1539
   08/03/2005 09:50:00     19.200     1.152    0.1577
   08/03/2005 09:55:00     19.200     1.152    0.1974
   08/03/2005 10:00:00     12.000     0.720    0.2350
   08/03/2005 10:05:00      8.400     0.504    0.2443
   08/03/2005 10:10:00      9.600     0.576    0.2403
   08/03/2005 10:15:00      6.000     0.360    0.2410
   08/03/2005 10:20:00      1.200     0.072    0.2297
   08/03/2005 10:25:00      2.400     0.144    0.2048
   08/03/2005 10:30:00      2.400     0.144    0.1880
   08/03/2005 10:35:00      3.600     0.216    0.1739
   08/03/2005 10:40:00      2.400     0.144    0.1655
   08/03/2005 10:45:00      3.600     0.216    0.1549
   08/03/2005 10:50:00      4.800     0.288    0.1491
   08/03/2005 10:55:00      2.400     0.144    0.1473
   08/03/2005 11:00:00      6.000     0.360    0.1393
   08/03/2005 11:05:00      2.400     0.144    0.1420
   08/03/2005 11:10:00      2.400     0.144    0.1346
  
  
  <<< Subcatchment S9 >>>
  ---------------------------------------------------
  Date        Time        Precip.    Losses    Runoff
                            mm/hr     mm/hr       CMS
  ---------------------------------------------------
   08/03/2005 07:10:00      3.600     2.318    0.0000
   08/03/2005 07:15:00     30.000    17.929    0.0000
   08/03/2005 07:20:00     45.600    10.901    0.0146
   08/03/2005 07:25:00     24.000     3.360    0.0918
   08/03/2005 07:30:00     27.600     3.864    0.1340
   08/03/2005 07:35:00     13.200     1.848    0.1847
   08/03/2005 07:40:00     13.200     1.848    0.1854
   08/03/2005 07:45:00     15.600     2.184    0.1864
   08/03/2005 07:50:00     18.000     2.520    0.1950
   08/03/2005 07:55:00     13.200     1.848    0.2099
   08/03/2005 08:00:00     42.000     5.880    0.2074
   08/03/2005 08:05:00     20.400     2.856    0.3032
   08/03/2005 08:10:00     12.000     1.680    0.3058
   08/03/2005 08:15:00      1.200     0.168    0.2792
   08/03/2005 08:20:00      0.000     0.000    0.2249
   08/03/2005 08:25:00      1.200     0.168    0.1826
   08/03/2005 08:30:00     14.400     2.016    0.1551
   08/03/2005 08:35:00      3.600     0.504    0.1708
   08/03/2005 08:40:00      1.200     0.168    0.1536
   08/03/2005 08:45:00      0.000     0.000    0.1340
   08/03/2005 08:50:00      2.400     0.336    0.1159
   08/03/2005 08:55:00      3.600     0.504    0.1074
   08/03/2005 09:00:00     14.400     2.016    0.1033
   08/03/2005 09:05:00     20.400     2.856    0.1262
   08/03/2005 09:10:00      1.200     0.168    0.1637
   08/03/2005 09:15:00      0.000     0.000    0.1437
   08/03/2005 09:20:00      0.000     0.000    0.1252
   08/03/2005 09:25:00      0.000     0.000    0.1108
   08/03/2005 09:30:00      0.000     0.000    0.0993
   08/03/2005 09:35:00     10.800     1.512    0.0899
   08/03/2005 09:40:00     10.800     1.512    0.1057
   08/03/2005 09:45:00      7.200     1.008    0.1204
   08/03/2005 09:50:00     19.200     2.688    0.1248
   08/03/2005 09:55:00     19.200     2.688    0.1602
   08/03/2005 10:00:00     12.000     1.680    0.1930
   08/03/2005 10:05:00      8.400     1.176    0.2005
   08/03/2005 10:10:00      9.600     1.344    0.1964
   08/03/2005 10:15:00      6.000     0.840    0.1970
   08/03/2005 10:20:00      1.200     0.168    0.1876
   08/03/2005 10:25:00      2.400     0.336    0.1671
   08/03/2005 10:30:00      2.400     0.336    0.1543
   08/03/2005 10:35:00      3.600     0.504    0.1442
   08/03/2005 10:40:00      2.400     0.336    0.1390
   08/03/2005 10:45:00      3.600     0.504    0.1319
   08/03/2005 10:50:00      4.800     0.672    0.1289
   08/03/2005 10:55:00      2.400     0.336    0.1293
   08/03/2005 11:00:00      6.000     0.840    0.1241
   08/03/2005 11:05:00      2.400     0.336    0.1281
   08/03/2005 11:10:00      2.400     0.336    0.1233
  
  
  <<< Subcatchment S10 >>>
  ---------------------------------------------------
  Date        Time        Precip.    Losses    Runoff
                            mm/hr     mm/hr       CMS
  ---------------------------------------------------
   08/03/2005 07:10:00      3.600     1.987    0.0000
   08/03/2005 07:15:00     30.000    15.368    0.0000
   08/03/2005 07:20:00     45.600     9.344    0.0131
   08/03/2005 07:25:00     24.000     2.880    0.0669
   08/03/2005 07:30:00     27.600     3.312    0.0702
   08/03/2005 07:35:00     13.200     1.584    0.0792
   08/03/2005 07:40:00     13.200     1.584    0.0613
   08/03/2005 07:45:00     15.600     1.872    0.0538
   08/03/2005 07:50:00     18.000     2.160    0.0545
   08/03/2005 07:55:00     13.200     1.584    0.0596
   08/03/2005 08:00:00     42.000     5.040    0.0559
   08/03/2005 08:05:00     20.400     2.448    0.1044
   08/03/2005 08:10:00     12.000     1.440    0.0933
   08/03/2005 08:15:00      1.200     0.144    0.0757
   08/03/2005 08:20:00      0.000     0.000    0.0518
   08/03/2005 08:25:00      1.200     0.144    0.0384
   08/03/2005 08:30:00     14.400     1.728    0.0322
   08/03/2005 08:35:00      3.600     0.432    0.0445
   08/03/2005 08:40:00      1.200     0.144    0.0391
   08/03/2005 08:45:00      0.000     0.000    0.0329
   08/03/2005 08:50:00      2.400     0.288    0.0276
   08/03/2005 08:55:00      3.600     0.432    0.0264
   08/03/2005 09:00:00     14.400     1.728    0.0267
   08/03/2005 09:05:00     20.400     2.448    0.0397
   08/03/2005 09:10:00      1.200     0.144    0.0593
   08/03/2005 09:15:00      0.000     0.000    0.0446
   08/03/2005 09:20:00      0.000     0.000    0.0351
   08/03/2005 09:25:00      0.000     0.000    0.0293
   08/03/2005 09:30:00      0.000     0.000    0.0254
   08/03/2005 09:35:00     10.800     1.296    0.0226
   08/03/2005 09:40:00     10.800     1.296    0.0313
   08/03/2005 09:45:00      7.200     0.864    0.0390
   08/03/2005 09:50:00     19.200     2.304    0.0401
   08/03/2005 09:55:00     19.200     2.304    0.0579
   08/03/2005 10:00:00     12.000     1.440    0.0708
   08/03/2005 10:05:00      8.400     1.008    0.0677
   08/03/2005 10:10:00      9.600     1.152    0.0610
   08/03/2005 10:15:00      6.000     0.720    0.0593
   08/03/2005 10:20:00      1.200     0.144    0.0533
   08/03/2005 10:25:00      2.400     0.288    0.0435
   08/03/2005 10:30:00      2.400     0.288    0.0389
   08/03/2005 10:35:00      3.600     0.432    0.0357
   08/03/2005 10:40:00      2.400     0.288    0.0347
   08/03/2005 10:45:00      3.600     0.432    0.0325
   08/03/2005 10:50:00      4.800     0.576    0.0322
   08/03/2005 10:55:00      2.400     0.288    0.0331
   08/03/2005 11:00:00      6.000     0.720    0.0311
   08/03/2005 11:05:00      2.400     0.288    0.0335
   08/03/2005 11:10:00      2.400     0.288    0.0312
  
  
  <<< Subcatchment S11 >>>
  ---------------------------------------------------
  Date        Time        Precip.    Losses    Runoff
                            mm/hr     mm/hr       CMS
  ---------------------------------------------------
   08/03/2005 07:10:00      3.600     1.987    0.0000
   08/03/2005 07:15:00     30.000    15.368    0.0000
   08/03/2005 07:20:00     45.600     9.344    0.0244
   08/03/2005 07:25:00     24.000     2.880    0.1413
   08/03/2005 07:30:00     27.600     3.312    0.1779
   08/03/2005 07:35:00     13.200     1.584    0.2199
   08/03/2005 07:40:00     13.200     1.584    0.1922
   08/03/2005 07:45:00     15.600     1.872    0.1765
   08/03/2005 07:50:00     18.000     2.160    0.1768
   08/03/2005 07:55:00     13.200     1.584    0.1877
   08/03/2005 08:00:00     42.000     5.040    0.1780
   08/03/2005 08:05:00     20.400     2.448    0.2926
   08/03/2005 08:10:00     12.000     1.440    0.2782
   08/03/2005 08:15:00      1.200     0.144    0.2369
   08/03/2005 08:20:00      0.000     0.000    0.1726
   08/03/2005 08:25:00      1.200     0.144    0.1308
   08/03/2005 08:30:00     14.400     1.728    0.1080
   08/03/2005 08:35:00      3.600     0.432    0.1335
   08/03/2005 08:40:00      1.200     0.144    0.1184
   08/03/2005 08:45:00      0.000     0.000    0.1009
   08/03/2005 08:50:00      2.400     0.288    0.0855
   08/03/2005 08:55:00      3.600     0.432    0.0805
   08/03/2005 09:00:00     14.400     1.728    0.0797
   08/03/2005 09:05:00     20.400     2.448    0.1095
   08/03/2005 09:10:00      1.200     0.144    0.1565
   08/03/2005 09:15:00      0.000     0.000    0.1285
   08/03/2005 09:20:00      0.000     0.000    0.1064
   08/03/2005 09:25:00      0.000     0.000    0.0911
   08/03/2005 09:30:00      0.000     0.000    0.0800
   08/03/2005 09:35:00     10.800     1.296    0.0716
   08/03/2005 09:40:00     10.800     1.296    0.0917
   08/03/2005 09:45:00      7.200     0.864    0.1100
   08/03/2005 09:50:00     19.200     2.304    0.1146
   08/03/2005 09:55:00     19.200     2.304    0.1577
   08/03/2005 10:00:00     12.000     1.440    0.1939
   08/03/2005 10:05:00      8.400     1.008    0.1946
   08/03/2005 10:10:00      9.600     1.152    0.1827
   08/03/2005 10:15:00      6.000     0.720    0.1795
   08/03/2005 10:20:00      1.200     0.144    0.1653
   08/03/2005 10:25:00      2.400     0.288    0.1402
   08/03/2005 10:30:00      2.400     0.288    0.1265
   08/03/2005 10:35:00      3.600     0.432    0.1165
   08/03/2005 10:40:00      2.400     0.288    0.1123
   08/03/2005 10:45:00      3.600     0.432    0.1058
   08/03/2005 10:50:00      4.800     0.576    0.1038
   08/03/2005 10:55:00      2.400     0.288    0.1054
   08/03/2005 11:00:00      6.000     0.720    0.1002
   08/03/2005 11:05:00      2.400     0.288    0.1055
   08/03/2005 11:10:00      2.400     0.288    0.1001
  
  
  <<< Subcatchment S12 >>>
  ---------------------------------------------------
  Date        Time        Precip.    Losses    Runoff
                            mm/hr     mm/hr       CMS
  ---------------------------------------------------
   08/03/2005 07:10:00      3.600     1.325    0.0000
   08/03/2005 07:15:00     30.000    10.245    0.0000
   08/03/2005 07:20:00     45.600     6.229    0.0147
   08/03/2005 07:25:00     24.000     1.920    0.0939
   08/03/2005 07:30:00     27.600     2.208    0.1412
   08/03/2005 07:35:00     13.200     1.056    0.1994
   08/03/2005 07:40:00     13.200     1.056    0.2067
   08/03/2005 07:45:00     15.600     1.248    0.2131
   08/03/2005 07:50:00     18.000     1.440    0.2268
   08/03/2005 07:55:00     13.200     1.056    0.2469
   08/03/2005 08:00:00     42.000     3.360    0.2477
   08/03/2005 08:05:00     20.400     1.632    0.3549
   08/03/2005 08:10:00     12.000     0.960    0.3633
   08/03/2005 08:15:00      1.200     0.096    0.3382
   08/03/2005 08:20:00      0.000     0.000    0.2798
   08/03/2005 08:25:00      1.200     0.096    0.2320
   08/03/2005 08:30:00     14.400     1.152    0.1994
   08/03/2005 08:35:00      3.600     0.288    0.2150
   08/03/2005 08:40:00      1.200     0.096    0.1940
   08/03/2005 08:45:00      0.000     0.000    0.1701
   08/03/2005 08:50:00      2.400     0.192    0.1476
   08/03/2005 08:55:00      3.600     0.288    0.1359
   08/03/2005 09:00:00     14.400     1.152    0.1294
   08/03/2005 09:05:00     20.400     1.632    0.1533
   08/03/2005 09:10:00      1.200     0.096    0.1936
   08/03/2005 09:15:00      0.000     0.000    0.1708
   08/03/2005 09:20:00      0.000     0.000    0.1492
   08/03/2005 09:25:00      0.000     0.000    0.1317
   08/03/2005 09:30:00      0.000     0.000    0.1173
   08/03/2005 09:35:00     10.800     0.864    0.1054
   08/03/2005 09:40:00     10.800     0.864    0.1216
   08/03/2005 09:45:00      7.200     0.576    0.1367
   08/03/2005 09:50:00     19.200     1.536    0.1406
   08/03/2005 09:55:00     19.200     1.536    0.1784
   08/03/2005 10:00:00     12.000     0.960    0.2138
   08/03/2005 10:05:00      8.400     0.672    0.2222
   08/03/2005 10:10:00      9.600     0.768    0.2180
   08/03/2005 10:15:00      6.000     0.480    0.2185
   08/03/2005 10:20:00      1.200     0.096    0.2077
   08/03/2005 10:25:00      2.400     0.192    0.1844
   08/03/2005 10:30:00      2.400     0.192    0.1691
   08/03/2005 10:35:00      3.600     0.288    0.1565
   08/03/2005 10:40:00      2.400     0.192    0.1492
   08/03/2005 10:45:00      3.600     0.288    0.1398
   08/03/2005 10:50:00      4.800     0.384    0.1350
   08/03/2005 10:55:00      2.400     0.192    0.1340
   08/03/2005 11:00:00      6.000     0.480    0.1270
   08/03/2005 11:05:00      2.400     0.192    0.1300
   08/03/2005 11:10:00      2.400     0.192    0.1236
  
  
  <<< Subcatchment S13 >>>
  ---------------------------------------------------
  Date        Time        Precip.    Losses    Runoff
                            mm/hr     mm/hr       CMS
  ---------------------------------------------------
   08/03/2005 07:10:00      3.600     1.325    0.0000
   08/03/2005 07:15:00     30.000    10.245    0.0000
   08/03/2005 07:20:00     45.600     6.229    0.0182
   08/03/2005 07:25:00     24.000     1.920    0.1145
   08/03/2005 07:30:00     27.600     2.208    0.1668
   08/03/2005 07:35:00     13.200     1.056    0.2294
   08/03/2005 07:40:00     13.200     1.056    0.2296
   08/03/2005 07:45:00     15.600     1.248    0.2304
   08/03/2005 07:50:00     18.000     1.440    0.2406
   08/03/2005 07:55:00     13.200     1.056    0.2587
   08/03/2005 08:00:00     42.000     3.360    0.2551
   08/03/2005 08:05:00     20.400     1.632    0.3733
   08/03/2005 08:10:00     12.000     0.960    0.3755
   08/03/2005 08:15:00      1.200     0.096    0.3416
   08/03/2005 08:20:00      0.000     0.000    0.2735
   08/03/2005 08:25:00      1.200     0.096    0.2206
   08/03/2005 08:30:00     14.400     1.152    0.1861
   08/03/2005 08:35:00      3.600     0.288    0.2050
   08/03/2005 08:40:00      1.200     0.096    0.1831
   08/03/2005 08:45:00      0.000     0.000    0.1584
   08/03/2005 08:50:00      2.400     0.192    0.1356
   08/03/2005 08:55:00      3.600     0.288    0.1246
   08/03/2005 09:00:00     14.400     1.152    0.1191
   08/03/2005 09:05:00     20.400     1.632    0.1465
   08/03/2005 09:10:00      1.200     0.096    0.1920
   08/03/2005 09:15:00      0.000     0.000    0.1664
   08/03/2005 09:20:00      0.000     0.000    0.1429
   08/03/2005 09:25:00      0.000     0.000    0.1244
   08/03/2005 09:30:00      0.000     0.000    0.1096
   08/03/2005 09:35:00     10.800     0.864    0.0976
   08/03/2005 09:40:00     10.800     0.864    0.1162
   08/03/2005 09:45:00      7.200     0.576    0.1334
   08/03/2005 09:50:00     19.200     1.536    0.1380
   08/03/2005 09:55:00     19.200     1.536    0.1803
   08/03/2005 10:00:00     12.000     0.960    0.2193
   08/03/2005 10:05:00      8.400     0.672    0.2269
   08/03/2005 10:10:00      9.600     0.768    0.2204
   08/03/2005 10:15:00      6.000     0.480    0.2196
   08/03/2005 10:20:00      1.200     0.096    0.2066
   08/03/2005 10:25:00      2.400     0.192    0.1802
   08/03/2005 10:30:00      2.400     0.192    0.1634
   08/03/2005 10:35:00      3.600     0.288    0.1500
   08/03/2005 10:40:00      2.400     0.192    0.1426
   08/03/2005 10:45:00      3.600     0.288    0.1330
   08/03/2005 10:50:00      4.800     0.384    0.1284
   08/03/2005 10:55:00      2.400     0.192    0.1278
   08/03/2005 11:00:00      6.000     0.480    0.1207
   08/03/2005 11:05:00      2.400     0.192    0.1245
   08/03/2005 11:10:00      2.400     0.192    0.1179
  
  
  <<< Subcatchment S14 >>>
  ---------------------------------------------------
  Date        Time        Precip.    Losses    Runoff
                            mm/hr     mm/hr       CMS
  ---------------------------------------------------
   08/03/2005 07:10:00      3.600     1.987    0.0000
   08/03/2005 07:15:00     30.000    15.368    0.0000
   08/03/2005 07:20:00     45.600     9.344    0.0145
   08/03/2005 07:25:00     24.000     2.880    0.0912
   08/03/2005 07:30:00     27.600     3.312    0.1320
   08/03/2005 07:35:00     13.200     1.584    0.1806
   08/03/2005 07:40:00     13.200     1.584    0.1796
   08/03/2005 07:45:00     15.600     1.872    0.1793
   08/03/2005 07:50:00     18.000     2.160    0.1867
   08/03/2005 07:55:00     13.200     1.584    0.2005
   08/03/2005 08:00:00     42.000     5.040    0.1972
   08/03/2005 08:05:00     20.400     2.448    0.2901
   08/03/2005 08:10:00     12.000     1.440    0.2912
   08/03/2005 08:15:00      1.200     0.144    0.2643
   08/03/2005 08:20:00      0.000     0.000    0.2111
   08/03/2005 08:25:00      1.200     0.144    0.1701
   08/03/2005 08:30:00     14.400     1.728    0.1438
   08/03/2005 08:35:00      3.600     0.432    0.1593
   08/03/2005 08:40:00      1.200     0.144    0.1428
   08/03/2005 08:45:00      0.000     0.000    0.1240
   08/03/2005 08:50:00      2.400     0.288    0.1068
   08/03/2005 08:55:00      3.600     0.432    0.0988
   08/03/2005 09:00:00     14.400     1.728    0.0950
   08/03/2005 09:05:00     20.400     2.448    0.1172
   08/03/2005 09:10:00      1.200     0.144    0.1537
   08/03/2005 09:15:00      0.000     0.000    0.1340
   08/03/2005 09:20:00      0.000     0.000    0.1160
   08/03/2005 09:25:00      0.000     0.000    0.1019
   08/03/2005 09:30:00      0.000     0.000    0.0908
   08/03/2005 09:35:00     10.800     1.296    0.0819
   08/03/2005 09:40:00     10.800     1.296    0.0970
   08/03/2005 09:45:00      7.200     0.864    0.1112
   08/03/2005 09:50:00     19.200     2.304    0.1153
   08/03/2005 09:55:00     19.200     2.304    0.1494
   08/03/2005 10:00:00     12.000     1.440    0.1809
   08/03/2005 10:05:00      8.400     1.008    0.1874
   08/03/2005 10:10:00      9.600     1.152    0.1828
   08/03/2005 10:15:00      6.000     0.720    0.1828
   08/03/2005 10:20:00      1.200     0.144    0.1731
   08/03/2005 10:25:00      2.400     0.288    0.1529
   08/03/2005 10:30:00      2.400     0.288    0.1403
   08/03/2005 10:35:00      3.600     0.432    0.1303
   08/03/2005 10:40:00      2.400     0.288    0.1251
   08/03/2005 10:45:00      3.600     0.432    0.1181
   08/03/2005 10:50:00      4.800     0.576    0.1151
   08/03/2005 10:55:00      2.400     0.288    0.1152
   08/03/2005 11:00:00      6.000     0.720    0.1101
   08/03/2005 11:05:00      2.400     0.288    0.1137
   08/03/2005 11:10:00      2.400     0.288    0.1089
  
  
  <<< Subcatchment S15 >>>
  ---------------------------------------------------
  Date        Time        Precip.    Losses    Runoff
                            mm/hr     mm/hr       CMS
  ---------------------------------------------------
   08/03/2005 07:10:00      3.600     1.656    0.0000
   08/03/2005 07:15:00     30.000    12.806    0.0000
   08/03/2005 07:20:00     45.600     7.786    0.0145
   08/03/2005 07:25:00     24.000     2.400    0.0908
   08/03/2005 07:30:00     27.600     2.760    0.1309
   08/03/2005 07:35:00     13.200     1.320    0.1784
   08/03/2005 07:40:00     13.200     1.320    0.1765
   08/03/2005 07:45:00     15.600     1.560    0.1756
   08/03/2005 07:50:00     18.000     1.800    0.1824
   08/03/2005 07:55:00     13.200     1.320    0.1955
   08/03/2005 08:00:00     42.000     4.200    0.1920
   08/03/2005 08:05:00     20.400     2.040    0.2832
   08/03/2005 08:10:00     12.000     1.200    0.2835
   08/03/2005 08:15:00      1.200     0.120    0.2564
   08/03/2005 08:20:00      0.000     0.000    0.2036
   08/03/2005 08:25:00      1.200     0.120    0.1633
   08/03/2005 08:30:00     14.400     1.440    0.1375
   08/03/2005 08:35:00      3.600     0.360    0.1528
   08/03/2005 08:40:00      1.200     0.120    0.1365
   08/03/2005 08:45:00      0.000     0.000    0.1181
   08/03/2005 08:50:00      2.400     0.240    0.1012
   08/03/2005 08:55:00      3.600     0.360    0.0933
   08/03/2005 09:00:00     14.400     1.440    0.0896
   08/03/2005 09:05:00     20.400     2.040    0.1114
   08/03/2005 09:10:00      1.200     0.120    0.1470
   08/03/2005 09:15:00      0.000     0.000    0.1273
   08/03/2005 09:20:00      0.000     0.000    0.1095
   08/03/2005 09:25:00      0.000     0.000    0.0956
   08/03/2005 09:30:00      0.000     0.000    0.0846
   08/03/2005 09:35:00     10.800     1.080    0.0757
   08/03/2005 09:40:00     10.800     1.080    0.0905
   08/03/2005 09:45:00      7.200     0.720    0.1041
   08/03/2005 09:50:00     19.200     1.920    0.1079
   08/03/2005 09:55:00     19.200     1.920    0.1412
   08/03/2005 10:00:00     12.000     1.200    0.1717
   08/03/2005 10:05:00      8.400     0.840    0.1775
   08/03/2005 10:10:00      9.600     0.960    0.1724
   08/03/2005 10:15:00      6.000     0.600    0.1719
   08/03/2005 10:20:00      1.200     0.120    0.1619
   08/03/2005 10:25:00      2.400     0.240    0.1417
   08/03/2005 10:30:00      2.400     0.240    0.1290
   08/03/2005 10:35:00      3.600     0.360    0.1190
   08/03/2005 10:40:00      2.400     0.240    0.1137
   08/03/2005 10:45:00      3.600     0.360    0.1066
   08/03/2005 10:50:00      4.800     0.480    0.1034
   08/03/2005 10:55:00      2.400     0.240    0.1034
   08/03/2005 11:00:00      6.000     0.600    0.0982
   08/03/2005 11:05:00      2.400     0.240    0.1015
   08/03/2005 11:10:00      2.400     0.240    0.0966
  
  
  ************
  Node Results
  ************
  
  <<< Node J0 >>>
  ----------------------------------------------------------------
                           Inflow  Flooding     Depth      Head
  Date        Time            CMS       CMS    meters    meters
  ----------------------------------------------------------------
   08/03/2005 07:10:00      0.000     0.000     0.011    31.001
   08/03/2005 07:15:00      0.000     0.000     0.007    30.997
   08/03/2005 07:20:00      0.014     0.000     0.040    31.030
   08/03/2005 07:25:00      0.088     0.000     0.104    31.094
   08/03/2005 07:30:00      0.121     0.000     0.126    31.116
   08/03/2005 07:35:00      0.163     0.000     0.146    31.136
   08/03/2005 07:40:00      0.158     0.000     0.146    31.136
   08/03/2005 07:45:00      0.154     0.000     0.143    31.133
   08/03/2005 07:50:00      0.157     0.000     0.145    31.135
   08/03/2005 07:55:00      0.167     0.000     0.149    31.139
   08/03/2005 08:00:00      0.163     0.000     0.148    31.138
   08/03/2005 08:05:00      0.241     0.000     0.178    31.168
   08/03/2005 08:10:00      0.243     0.000     0.180    31.170
   08/03/2005 08:15:00      0.216     0.000     0.171    31.161
   08/03/2005 08:20:00      0.171     0.000     0.152    31.142
   08/03/2005 08:25:00      0.134     0.000     0.135    31.125
   08/03/2005 08:30:00      0.111     0.000     0.123    31.113
   08/03/2005 08:35:00      0.124     0.000     0.128    31.118
   08/03/2005 08:40:00      0.112     0.000     0.123    31.113
   08/03/2005 08:45:00      0.096     0.000     0.114    31.104
   08/03/2005 08:50:00      0.082     0.000     0.106    31.096
   08/03/2005 08:55:00      0.075     0.000     0.101    31.091
   08/03/2005 09:00:00      0.072     0.000     0.099    31.089
   08/03/2005 09:05:00      0.090     0.000     0.110    31.100
   08/03/2005 09:10:00      0.125     0.000     0.128    31.118
   08/03/2005 09:15:00      0.108     0.000     0.121    31.111
   08/03/2005 09:20:00      0.092     0.000     0.112    31.102
   08/03/2005 09:25:00      0.080     0.000     0.104    31.094
   08/03/2005 09:30:00      0.070     0.000     0.098    31.088
   08/03/2005 09:35:00      0.062     0.000     0.093    31.083
   08/03/2005 09:40:00      0.074     0.000     0.100    31.090
   08/03/2005 09:45:00      0.087     0.000     0.108    31.098
   08/03/2005 09:50:00      0.091     0.000     0.111    31.101
   08/03/2005 09:55:00      0.121     0.000     0.126    31.116
   08/03/2005 10:00:00      0.147     0.000     0.140    31.130
   08/03/2005 10:05:00      0.153     0.000     0.143    31.133
   08/03/2005 10:10:00      0.148     0.000     0.141    31.131
   08/03/2005 10:15:00      0.147     0.000     0.140    31.130
   08/03/2005 10:20:00      0.137     0.000     0.136    31.126
   08/03/2005 10:25:00      0.120     0.000     0.127    31.117
   08/03/2005 10:30:00      0.107     0.000     0.121    31.111
   08/03/2005 10:35:00      0.099     0.000     0.116    31.106
   08/03/2005 10:40:00      0.094     0.000     0.113    31.103
   08/03/2005 10:45:00      0.088     0.000     0.109    31.099
   08/03/2005 10:50:00      0.085     0.000     0.108    31.098
   08/03/2005 10:55:00      0.085     0.000     0.107    31.097
   08/03/2005 11:00:00      0.081     0.000     0.105    31.095
   08/03/2005 11:05:00      0.084     0.000     0.106    31.096
   08/03/2005 11:10:00      0.080     0.000     0.104    31.094
  
  
  <<< Node J1 >>>
  ----------------------------------------------------------------
                           Inflow  Flooding     Depth      Head
  Date        Time            CMS       CMS    meters    meters
  ----------------------------------------------------------------
   08/03/2005 07:10:00      0.000     0.000     0.000    28.990
   08/03/2005 07:15:00      0.000     0.000     0.002    28.992
   08/03/2005 07:20:00      0.014     0.000     0.044    29.034
   08/03/2005 07:25:00      0.077     0.000     0.108    29.098
   08/03/2005 07:30:00      0.092     0.000     0.121    29.111
   08/03/2005 07:35:00      0.111     0.000     0.133    29.123
   08/03/2005 07:40:00      0.095     0.000     0.125    29.115
   08/03/2005 07:45:00      0.085     0.000     0.118    29.108
   08/03/2005 07:50:00      0.085     0.000     0.117    29.107
   08/03/2005 07:55:00      0.089     0.000     0.120    29.110
   08/03/2005 08:00:00      0.084     0.000     0.117    29.107
   08/03/2005 08:05:00      0.138     0.000     0.148    29.138
   08/03/2005 08:10:00      0.131     0.000     0.146    29.136
   08/03/2005 08:15:00      0.107     0.000     0.132    29.122
   08/03/2005 08:20:00      0.075     0.000     0.111    29.101
   08/03/2005 08:25:00      0.052     0.000     0.093    29.083
   08/03/2005 08:30:00      0.040     0.000     0.082    29.072
   08/03/2005 08:35:00      0.051     0.000     0.090    29.080
   08/03/2005 08:40:00      0.044     0.000     0.086    29.076
   08/03/2005 08:45:00      0.035     0.000     0.077    29.067
   08/03/2005 08:50:00      0.027     0.000     0.068    29.058
   08/03/2005 08:55:00      0.024     0.000     0.064    29.054
   08/03/2005 09:00:00      0.024     0.000     0.063    29.053
   08/03/2005 09:05:00      0.037     0.000     0.077    29.067
   08/03/2005 09:10:00      0.061     0.000     0.098    29.088
   08/03/2005 09:15:00      0.047     0.000     0.088    29.078
   08/03/2005 09:20:00      0.035     0.000     0.077    29.067
   08/03/2005 09:25:00      0.027     0.000     0.068    29.058
   08/03/2005 09:30:00      0.021     0.000     0.061    29.051
   08/03/2005 09:35:00      0.017     0.000     0.055    29.045
   08/03/2005 09:40:00      0.026     0.000     0.065    29.055
   08/03/2005 09:45:00      0.035     0.000     0.075    29.065
   08/03/2005 09:50:00      0.037     0.000     0.078    29.068
   08/03/2005 09:55:00      0.058     0.000     0.095    29.085
   08/03/2005 10:00:00      0.073     0.000     0.108    29.098
   08/03/2005 10:05:00      0.073     0.000     0.109    29.099
   08/03/2005 10:10:00      0.065     0.000     0.103    29.093
   08/03/2005 10:15:00      0.062     0.000     0.101    29.091
   08/03/2005 10:20:00      0.055     0.000     0.095    29.085
   08/03/2005 10:25:00      0.042     0.000     0.084    29.074
   08/03/2005 10:30:00      0.035     0.000     0.077    29.067
   08/03/2005 10:35:00      0.030     0.000     0.071    29.061
   08/03/2005 10:40:00      0.028     0.000     0.069    29.059
   08/03/2005 10:45:00      0.025     0.000     0.066    29.056
   08/03/2005 10:50:00      0.025     0.000     0.064    29.054
   08/03/2005 10:55:00      0.025     0.000     0.065    29.055
   08/03/2005 11:00:00      0.023     0.000     0.063    29.053
   08/03/2005 11:05:00      0.026     0.000     0.065    29.055
   08/03/2005 11:10:00      0.024     0.000     0.063    29.053
  
  
  <<< Node J2 >>>
  ----------------------------------------------------------------
                           Inflow  Flooding     Depth      Head
  Date        Time            CMS       CMS    meters    meters
  ----------------------------------------------------------------
   08/03/2005 07:10:00      0.001     0.000     0.066    26.056
   08/03/2005 07:15:00      0.000     0.000     0.042    26.032
   08/03/2005 07:20:00      0.022     0.000     0.040    26.030
   08/03/2005 07:25:00      0.167     0.000     0.111    26.101
   08/03/2005 07:30:00      0.246     0.000     0.187    26.177
   08/03/2005 07:35:00      0.303     0.000     0.214    26.204
   08/03/2005 07:40:00      0.287     0.000     0.221    26.211
   08/03/2005 07:45:00      0.265     0.000     0.213    26.203
   08/03/2005 07:50:00      0.266     0.000     0.209    26.199
   08/03/2005 07:55:00      0.282     0.000     0.213    26.203
   08/03/2005 08:00:00      0.276     0.000     0.215    26.205
   08/03/2005 08:05:00      0.411     0.000     0.241    26.231
   08/03/2005 08:10:00      0.428     0.000     0.265    26.255
   08/03/2005 08:15:00      0.372     0.000     0.254    26.244
   08/03/2005 08:20:00      0.285     0.000     0.229    26.219
   08/03/2005 08:25:00      0.216     0.000     0.201    26.191
   08/03/2005 08:30:00      0.175     0.000     0.179    26.169
   08/03/2005 08:35:00      0.194     0.000     0.175    26.165
   08/03/2005 08:40:00      0.183     0.000     0.178    26.168
   08/03/2005 08:45:00      0.156     0.000     0.168    26.158
   08/03/2005 08:50:00      0.130     0.000     0.155    26.145
   08/03/2005 08:55:00      0.117     0.000     0.145    26.135
   08/03/2005 09:00:00      0.113     0.000     0.140    26.130
   08/03/2005 09:05:00      0.144     0.000     0.147    26.137
   08/03/2005 09:10:00      0.208     0.000     0.172    26.162
   08/03/2005 09:15:00      0.190     0.000     0.183    26.173
   08/03/2005 09:20:00      0.153     0.000     0.168    26.158
   08/03/2005 09:25:00      0.127     0.000     0.153    26.143
   08/03/2005 09:30:00      0.109     0.000     0.142    26.132
   08/03/2005 09:35:00      0.095     0.000     0.132    26.122
   08/03/2005 09:40:00      0.113     0.000     0.133    26.123
   08/03/2005 09:45:00      0.140     0.000     0.146    26.136
   08/03/2005 09:50:00      0.151     0.000     0.157    26.147
   08/03/2005 09:55:00      0.200     0.000     0.171    26.161
   08/03/2005 10:00:00      0.255     0.000     0.196    26.186
   08/03/2005 10:05:00      0.265     0.000     0.208    26.198
   08/03/2005 10:10:00      0.250     0.000     0.206    26.196
[...]
   08/03/2005 07:45:00      0.307     1.454     0.205     0.030
   08/03/2005 07:50:00      0.299     1.437     0.203     0.029
   08/03/2005 07:55:00      0.311     1.462     0.206     0.030
   08/03/2005 08:00:00      0.322     1.477     0.210     0.031
   08/03/2005 08:05:00      0.387     1.600     0.225     0.034
   08/03/2005 08:10:00      0.495     1.727     0.253     0.041
   08/03/2005 08:15:00      0.465     1.648     0.250     0.040
   08/03/2005 08:20:00      0.389     1.532     0.233     0.036
   08/03/2005 08:25:00      0.306     1.406     0.210     0.031
   08/03/2005 08:30:00      0.248     1.318     0.190     0.027
   08/03/2005 08:35:00      0.232     1.324     0.182     0.025
   08/03/2005 08:40:00      0.245     1.373     0.184     0.025
   08/03/2005 08:45:00      0.222     1.315     0.177     0.024
   08/03/2005 08:50:00      0.193     1.244     0.167     0.022
   08/03/2005 08:55:00      0.171     1.192     0.157     0.020
   08/03/2005 09:00:00      0.161     1.179     0.152     0.019
   08/03/2005 09:05:00      0.172     1.231     0.155     0.020
   08/03/2005 09:10:00      0.227     1.400     0.172     0.023
   08/03/2005 09:15:00      0.264     1.451     0.186     0.026
   08/03/2005 09:20:00      0.229     1.344     0.178     0.024
   08/03/2005 09:25:00      0.196     1.260     0.167     0.022
   08/03/2005 09:30:00      0.172     1.204     0.157     0.020
   08/03/2005 09:35:00      0.154     1.163     0.149     0.019
   08/03/2005 09:40:00      0.151     1.174     0.146     0.018
   08/03/2005 09:45:00      0.180     1.279     0.155     0.020
   08/03/2005 09:50:00      0.204     1.338     0.165     0.022
   08/03/2005 09:55:00      0.234     1.407     0.175     0.023
   08/03/2005 10:00:00      0.300     1.527     0.195     0.028
   08/03/2005 10:05:00      0.341     1.559     0.210     0.031
   08/03/2005 10:10:00      0.340     1.532     0.212     0.031
   08/03/2005 10:15:00      0.329     1.508     0.210     0.031
   08/03/2005 10:20:00      0.319     1.492     0.207     0.030
   08/03/2005 10:25:00      0.293     1.443     0.200     0.029
   08/03/2005 10:30:00      0.260     1.391     0.189     0.026
   08/03/2005 10:35:00      0.239     1.367     0.181     0.025
   08/03/2005 10:40:00      0.225     1.347     0.176     0.024
   08/03/2005 10:45:00      0.216     1.333     0.172     0.023
   08/03/2005 10:50:00      0.208     1.317     0.169     0.022
   08/03/2005 10:55:00      0.206     1.318     0.167     0.022
   08/03/2005 11:00:00      0.204     1.318     0.166     0.022
   08/03/2005 11:05:00      0.201     1.313     0.165     0.022
   08/03/2005 11:10:00      0.203     1.321     0.165     0.022
  
  
  <<< Link C20 >>>
  ----------------------------------------------------------------
                             Flow  Velocity     Depth  Capacity/
  Date        Time            CMS     m/sec    meters   Setting 
  ----------------------------------------------------------------
   08/03/2005 07:10:00      0.000     0.000     0.000     0.000
   08/03/2005 07:15:00      0.000     0.000     0.001     0.000
   08/03/2005 07:20:00      0.001     0.355     0.011     0.001
   08/03/2005 07:25:00      0.023     0.690     0.059     0.005
   08/03/2005 07:30:00      0.180     1.288     0.154     0.020
   08/03/2005 07:35:00      0.379     1.610     0.221     0.033
   08/03/2005 07:40:00      0.491     1.731     0.251     0.040
   08/03/2005 07:45:00      0.492     1.711     0.253     0.041
   08/03/2005 07:50:00      0.480     1.689     0.251     0.040
   08/03/2005 07:55:00      0.491     1.697     0.254     0.041
   08/03/2005 08:00:00      0.511     1.720     0.259     0.042
   08/03/2005 08:05:00      0.569     1.763     0.274     0.046
   08/03/2005 08:10:00      0.739     1.936     0.307     0.054
   08/03/2005 08:15:00      0.750     1.939     0.310     0.055
   08/03/2005 08:20:00      0.663     1.864     0.293     0.050
   08/03/2005 08:25:00      0.538     1.740     0.266     0.044
   08/03/2005 08:30:00      0.436     1.636     0.241     0.038
   08/03/2005 08:35:00      0.385     1.565     0.228     0.035
   08/03/2005 08:40:00      0.389     1.584     0.228     0.035
   08/03/2005 08:45:00      0.366     1.557     0.221     0.033
   08/03/2005 08:50:00      0.325     1.499     0.209     0.031
   08/03/2005 08:55:00      0.285     1.440     0.196     0.028
   08/03/2005 09:00:00      0.261     1.405     0.189     0.026
   08/03/2005 09:05:00      0.261     1.405     0.189     0.026
   08/03/2005 09:10:00      0.315     1.492     0.205     0.030
   08/03/2005 09:15:00      0.386     1.607     0.224     0.034
   08/03/2005 09:20:00      0.368     1.576     0.220     0.033
   08/03/2005 09:25:00      0.322     1.507     0.207     0.030
   08/03/2005 09:30:00      0.281     1.446     0.194     0.027
   08/03/2005 09:35:00      0.249     1.398     0.183     0.025
   08/03/2005 09:40:00      0.234     1.371     0.178     0.024
   08/03/2005 09:45:00      0.256     1.413     0.186     0.026
   08/03/2005 09:50:00      0.294     1.479     0.197     0.028
   08/03/2005 09:55:00      0.331     1.528     0.209     0.031
   08/03/2005 10:00:00      0.411     1.636     0.231     0.036
   08/03/2005 10:05:00      0.493     1.735     0.251     0.040
   08/03/2005 10:10:00      0.515     1.753     0.257     0.042
   08/03/2005 10:15:00      0.506     1.738     0.255     0.041
   08/03/2005 10:20:00      0.493     1.726     0.252     0.040
   08/03/2005 10:25:00      0.462     1.694     0.245     0.039
   08/03/2005 10:30:00      0.417     1.640     0.233     0.036
   08/03/2005 10:35:00      0.379     1.592     0.223     0.034
   08/03/2005 10:40:00      0.352     1.558     0.215     0.032
   08/03/2005 10:45:00      0.335     1.537     0.209     0.031
   08/03/2005 10:50:00      0.319     1.517     0.205     0.030
   08/03/2005 10:55:00      0.311     1.507     0.202     0.029
   08/03/2005 11:00:00      0.308     1.506     0.201     0.029
   08/03/2005 11:05:00      0.302     1.497     0.199     0.029
   08/03/2005 11:10:00      0.303     1.502     0.199     0.029
  
  
  <<< Link C21 >>>
  ----------------------------------------------------------------
                             Flow  Velocity     Depth  Capacity/
  Date        Time            CMS     m/sec    meters   Setting 
  ----------------------------------------------------------------
   08/03/2005 07:10:00      0.000     0.000     0.000     0.000
   08/03/2005 07:15:00      0.000     0.000     0.003     0.000
   08/03/2005 07:20:00      0.009     1.450     0.029     0.008
   08/03/2005 07:25:00      0.077     2.296     0.087     0.043
   08/03/2005 07:30:00      0.123     1.756     0.145     0.089
   08/03/2005 07:35:00      0.170     1.688     0.186     0.128
   08/03/2005 07:40:00      0.177     1.589     0.199     0.142
   08/03/2005 07:45:00      0.176     1.583     0.199     0.141
   08/03/2005 07:50:00      0.181     1.634     0.199     0.141
   08/03/2005 07:55:00      0.193     1.695     0.203     0.145
   08/03/2005 08:00:00      0.193     1.665     0.205     0.147
   08/03/2005 08:05:00      0.269     2.012     0.227     0.170
   08/03/2005 08:10:00      0.283     1.893     0.246     0.191
   08/03/2005 08:15:00      0.260     1.776     0.242     0.187
   08/03/2005 08:20:00      0.213     1.615     0.224     0.168
   08/03/2005 08:25:00      0.170     1.500     0.202     0.145
   08/03/2005 08:30:00      0.142     1.432     0.184     0.127
   08/03/2005 08:35:00      0.150     1.561     0.180     0.122
   08/03/2005 08:40:00      0.140     1.477     0.178     0.120
   08/03/2005 08:45:00      0.122     1.372     0.170     0.113
   08/03/2005 08:50:00      0.105     1.294     0.160     0.103
   08/03/2005 08:55:00      0.095     1.269     0.151     0.095
   08/03/2005 09:00:00      0.090     1.267     0.146     0.091
   08/03/2005 09:05:00      0.107     1.422     0.152     0.096
   08/03/2005 09:10:00      0.141     1.602     0.169     0.112
   08/03/2005 09:15:00      0.131     1.414     0.175     0.118
   08/03/2005 09:20:00      0.113     1.296     0.168     0.111
   08/03/2005 09:25:00      0.099     1.241     0.158     0.101
   08/03/2005 09:30:00      0.087     1.198     0.148     0.092
   08/03/2005 09:35:00      0.078     1.159     0.140     0.085
   08/03/2005 09:40:00      0.087     1.291     0.141     0.086
   08/03/2005 09:45:00      0.101     1.379     0.149     0.094
   08/03/2005 09:50:00      0.107     1.362     0.157     0.100
   08/03/2005 09:55:00      0.135     1.530     0.170     0.112
   08/03/2005 10:00:00      0.166     1.624     0.188     0.130
   08/03/2005 10:05:00      0.176     1.583     0.200     0.142
   08/03/2005 10:10:00      0.173     1.537     0.201     0.144
   08/03/2005 10:15:00      0.172     1.540     0.200     0.142
   08/03/2005 10:20:00      0.164     1.501     0.197     0.139
   08/03/2005 10:25:00      0.145     1.414     0.189     0.131
   08/03/2005 10:30:00      0.131     1.374     0.179     0.122
   08/03/2005 10:35:00      0.121     1.344     0.172     0.115
   08/03/2005 10:40:00      0.115     1.333     0.167     0.110
   08/03/2005 10:45:00      0.108     1.304     0.162     0.106
   08/03/2005 10:50:00      0.104     1.293     0.159     0.102
   08/03/2005 10:55:00      0.103     1.300     0.158     0.101
   08/03/2005 11:00:00      0.099     1.268     0.156     0.100
   08/03/2005 11:05:00      0.101     1.290     0.156     0.099
   08/03/2005 11:10:00      0.097     1.257     0.155     0.099
  
  
  <<< Link C23 >>>
  ----------------------------------------------------------------
                             Flow  Velocity     Depth  Capacity/
  Date        Time            CMS     m/sec    meters   Setting 
  ----------------------------------------------------------------
   08/03/2005 07:10:00      0.068     1.002     0.090     0.007
   08/03/2005 07:15:00      0.059     1.002     0.082     0.006
   08/03/2005 07:20:00      0.045     0.986     0.070     0.004
   08/03/2005 07:25:00      0.053     0.992     0.077     0.005
   08/03/2005 07:30:00      0.286     1.237     0.205     0.023
   08/03/2005 07:35:00      1.146     1.908     0.391     0.059
   08/03/2005 07:40:00      1.944     2.284     0.498     0.084
   08/03/2005 07:45:00      2.183     2.394     0.522     0.090
   08/03/2005 07:50:00      2.152     2.387     0.518     0.089
   08/03/2005 07:55:00      2.170     2.388     0.521     0.089
   08/03/2005 08:00:00      2.267     2.418     0.532     0.092
   08/03/2005 08:05:00      2.395     2.446     0.548     0.096
   08/03/2005 08:10:00      3.048     2.614     0.618     0.115
   08/03/2005 08:15:00      3.396     2.729     0.648     0.122
   08/03/2005 08:20:00      3.132     2.664     0.622     0.116
   08/03/2005 08:25:00      2.628     2.529     0.571     0.102
   08/03/2005 08:30:00      2.143     2.382     0.517     0.088
   08/03/2005 08:35:00      1.825     2.265     0.479     0.079
   08/03/2005 08:40:00      1.763     2.245     0.471     0.077
   08/03/2005 08:45:00      1.700     2.221     0.462     0.075
   08/03/2005 08:50:00      1.538     2.159     0.440     0.070
   08/03/2005 08:55:00      1.356     2.076     0.415     0.064
   08/03/2005 09:00:00      1.218     2.003     0.395     0.060
   08/03/2005 09:05:00      1.157     1.978     0.384     0.057
   08/03/2005 09:10:00      1.259     2.011     0.403     0.062
   08/03/2005 09:15:00      1.561     2.152     0.446     0.071
   08/03/2005 09:20:00      1.648     2.202     0.455     0.074
   08/03/2005 09:25:00      1.486     2.138     0.433     0.068
   08/03/2005 09:30:00      1.303     2.048     0.407     0.062
   08/03/2005 09:35:00      1.146     1.972     0.383     0.057
   08/03/2005 09:40:00      1.039     1.929     0.364     0.053
   08/03/2005 09:45:00      1.049     1.923     0.367     0.054
   08/03/2005 09:50:00      1.179     1.978     0.389     0.059
   08/03/2005 09:55:00      1.321     2.047     0.411     0.063
   08/03/2005 10:00:00      1.586     2.158     0.450     0.072
   08/03/2005 10:05:00      1.965     2.302     0.499     0.084
   08/03/2005 10:10:00      2.182     2.391     0.522     0.090
   08/03/2005 10:15:00      2.184     2.398     0.521     0.089
   08/03/2005 10:20:00      2.138     2.384     0.516     0.088
   08/03/2005 10:25:00      2.034     2.346     0.504     0.085
   08/03/2005 10:30:00      1.854     2.275     0.483     0.080
   08/03/2005 10:35:00      1.675     2.212     0.459     0.074
   08/03/2005 10:40:00      1.536     2.158     0.440     0.070
   08/03/2005 10:45:00      1.441     2.118     0.427     0.067
   08/03/2005 10:50:00      1.365     2.080     0.416     0.064
   08/03/2005 10:55:00      1.312     2.053     0.408     0.063
   08/03/2005 11:00:00      1.285     2.038     0.404     0.062
   08/03/2005 11:05:00      1.258     2.024     0.401     0.061
   08/03/2005 11:10:00      1.248     2.019     0.399     0.061
  
  
  <<< Link C24 >>>
  ----------------------------------------------------------------
                             Flow  Velocity     Depth  Capacity/
  Date        Time            CMS     m/sec    meters   Setting 
  ----------------------------------------------------------------
   08/03/2005 07:10:00      0.000     0.000     0.000     0.000
   08/03/2005 07:15:00      0.000     0.000     0.003     0.000
   08/03/2005 07:20:00      0.007     0.825     0.032     0.008
   08/03/2005 07:25:00      0.067     1.380     0.109     0.051
   08/03/2005 07:30:00      0.122     1.430     0.160     0.090
   08/03/2005 07:35:00      0.169     1.599     0.185     0.111
   08/03/2005 07:40:00      0.180     1.635     0.190     0.116
   08/03/2005 07:45:00      0.179     1.662     0.188     0.113
   08/03/2005 07:50:00      0.185     1.700     0.189     0.114
   08/03/2005 07:55:00      0.197     1.743     0.194     0.119
   08/03/2005 08:00:00      0.198     1.738     0.195     0.120
   08/03/2005 08:05:00      0.270     1.936     0.225     0.147
   08/03/2005 08:10:00      0.291     1.934     0.237     0.158
   08/03/2005 08:15:00      0.270     1.893     0.228     0.150
   08/03/2005 08:20:00      0.223     1.785     0.208     0.131
   08/03/2005 08:25:00      0.180     1.682     0.187     0.112
   08/03/2005 08:30:00      0.150     1.603     0.170     0.099
   08/03/2005 08:35:00      0.155     1.638     0.172     0.100
   08/03/2005 08:40:00      0.147     1.583     0.169     0.098
   08/03/2005 08:45:00      0.129     1.510     0.160     0.090
   08/03/2005 08:50:00      0.111     1.440     0.149     0.081
   08/03/2005 08:55:00      0.101     1.398     0.142     0.076
   08/03/2005 09:00:00      0.096     1.376     0.139     0.073
   08/03/2005 09:05:00      0.111     1.454     0.148     0.080
   08/03/2005 09:10:00      0.145     1.571     0.168     0.097
   08/03/2005 09:15:00      0.139     1.508     0.169     0.097
   08/03/2005 09:20:00      0.121     1.445     0.157     0.088
   08/03/2005 09:25:00      0.106     1.393     0.147     0.080
   08/03/2005 09:30:00      0.094     1.344     0.139     0.074
   08/03/2005 09:35:00      0.084     1.301     0.132     0.068
   08/03/2005 09:40:00      0.092     1.358     0.137     0.072
   08/03/2005 09:45:00      0.107     1.417     0.147     0.080
   08/03/2005 09:50:00      0.114     1.431     0.153     0.084
   08/03/2005 09:55:00      0.141     1.538     0.167     0.096
   08/03/2005 10:00:00      0.173     1.629     0.186     0.112
   08/03/2005 10:05:00      0.186     1.649     0.194     0.119
   08/03/2005 10:10:00      0.184     1.644     0.193     0.118
   08/03/2005 10:15:00      0.183     1.651     0.191     0.116
   08/03/2005 10:20:00      0.175     1.630     0.187     0.113
   08/03/2005 10:25:00      0.158     1.576     0.178     0.105
   08/03/2005 10:30:00      0.143     1.537     0.170     0.098
   08/03/2005 10:35:00      0.133     1.503     0.164     0.093
   08/03/2005 10:40:00      0.126     1.482     0.160     0.090
   08/03/2005 10:45:00      0.120     1.456     0.156     0.087
   08/03/2005 10:50:00      0.116     1.440     0.153     0.085
   08/03/2005 10:55:00      0.115     1.437     0.153     0.084
   08/03/2005 11:00:00      0.112     1.417     0.151     0.083
   08/03/2005 11:05:00      0.113     1.425     0.152     0.083
   08/03/2005 11:10:00      0.110     1.408     0.151     0.082
  
  
  <<< Link C22 >>>
  ----------------------------------------------------------------
                             Flow  Velocity     Depth  Capacity/
  Date        Time            CMS     m/sec    meters   Setting 
  ----------------------------------------------------------------
   08/03/2005 07:10:00      0.000     0.000     0.036     0.007
   08/03/2005 07:15:00      0.000     0.002     0.029     0.005
   08/03/2005 07:20:00      0.004     0.352     0.040     0.008
   08/03/2005 07:25:00      0.059     1.451     0.089     0.027
   08/03/2005 07:30:00      0.125     1.535     0.141     0.053
   08/03/2005 07:35:00      0.171     1.469     0.180     0.075
   08/03/2005 07:40:00      0.185     1.412     0.196     0.085
   08/03/2005 07:45:00      0.186     1.409     0.197     0.086
   08/03/2005 07:50:00      0.193     1.458     0.197     0.086
   08/03/2005 07:55:00      0.206     1.515     0.201     0.088
   08/03/2005 08:00:00      0.208     1.506     0.203     0.090
   08/03/2005 08:05:00      0.280     1.764     0.224     0.103
   08/03/2005 08:10:00      0.305     1.711     0.242     0.116
   08/03/2005 08:15:00      0.286     1.624     0.240     0.114
   08/03/2005 08:20:00      0.238     1.508     0.223     0.103
   08/03/2005 08:25:00      0.194     1.420     0.202     0.089
   08/03/2005 08:30:00      0.163     1.369     0.183     0.077
   08/03/2005 08:35:00      0.166     1.453     0.178     0.074
   08/03/2005 08:40:00      0.159     1.410     0.176     0.073
   08/03/2005 08:45:00      0.140     1.325     0.169     0.069
   08/03/2005 08:50:00      0.121     1.256     0.159     0.063
   08/03/2005 08:55:00      0.110     1.237     0.150     0.058
   08/03/2005 09:00:00      0.105     1.241     0.145     0.055
   08/03/2005 09:05:00      0.119     1.352     0.149     0.057
   08/03/2005 09:10:00      0.153     1.499     0.165     0.066
   08/03/2005 09:15:00      0.150     1.372     0.173     0.071
   08/03/2005 09:20:00      0.131     1.267     0.166     0.067
   08/03/2005 09:25:00      0.115     1.219     0.156     0.061
   08/03/2005 09:30:00      0.103     1.194     0.147     0.056
   08/03/2005 09:35:00      0.093     1.173     0.139     0.052
   08/03/2005 09:40:00      0.101     1.265     0.139     0.052
   08/03/2005 09:45:00      0.116     1.347     0.147     0.056
   08/03/2005 09:50:00      0.123     1.340     0.154     0.060
   08/03/2005 09:55:00      0.150     1.452     0.166     0.067
   08/03/2005 10:00:00      0.184     1.534     0.184     0.078
   08/03/2005 10:05:00      0.198     1.513     0.196     0.085
   08/03/2005 10:10:00      0.197     1.477     0.199     0.087
   08/03/2005 10:15:00      0.197     1.484     0.198     0.086
   08/03/2005 10:20:00      0.190     1.466     0.195     0.084
   08/03/2005 10:25:00      0.173     1.408     0.187     0.080
   08/03/2005 10:30:00      0.158     1.380     0.178     0.074
   08/03/2005 10:35:00      0.147     1.366     0.171     0.070
   08/03/2005 10:40:00      0.141     1.362     0.166     0.067
   08/03/2005 10:45:00      0.134     1.346     0.162     0.065
   08/03/2005 10:50:00      0.130     1.342     0.159     0.063
   08/03/2005 10:55:00      0.129     1.352     0.158     0.062
   08/03/2005 11:00:00      0.126     1.335     0.156     0.061
   08/03/2005 11:05:00      0.127     1.351     0.156     0.061
   08/03/2005 11:10:00      0.125     1.334     0.155     0.061
  

  Analysis begun on:  Wed Mar 27 18:30:11 2019
  Analysis ended on:  Wed Mar 27 18:30:12 2019
  Total elapsed time: 00:00:01