
  EPA STORM WATER MANAGEMENT MODEL - VERSION 5.1 (Build 5.1.012)
  --------------------------------------------------------------

  
  *************
  Element Count
  *************
  Number of rain gages ...... 1
  Number of subcatchments ... 15
  Number of nodes ........... 25
  Number of links ........... 24
  Number of pollutants ...... 0
  Number of land uses ....... 0
  
  
  ****************
  Raingage Summary
  ****************
                                                      Data       Recording
  Name                 Data Source                    Type       Interval 
  ------------------------------------------------------------------------
  1                    20050803                       VOLUME       5 min.
  
  
  ********************
  Subcatchment Summary
  ********************
  Name                       Area     Width   %Imperv    %Slope Rain Gage            Outlet              
  -----------------------------------------------------------------------------------------------------------
  S1                         2.21    400.00     80.00    0.0500 1                    J1                  
  S2                         7.25    400.00     50.00    0.0500 1                    J0                  
  S3                         1.53    400.00     30.00    0.0500 1                    J4                  
  S4                         6.18    400.00     20.00    0.0500 1                    J8                  
  S5                         9.28    400.00     20.00    0.0500 1                    J7                  
  S6                         6.98    400.00     60.00    0.0500 1                    J5                  
  S7                         3.28    400.00     40.00    0.0500 1                    J25                 
  S8                        10.68    400.00     70.00    0.0500 1                    J11                 
  S9                        16.43    400.00     30.00    0.0500 1                    J14                 
  S10                        2.73    400.00     40.00    0.0500 1                    J9                  
  S11                        9.27    700.00     40.00    0.0500 1                    J10                 
  S12                       10.58    400.00     60.00    0.0500 1                    J17                 
  S13                       10.08    500.00     60.00    0.0500 1                    J24                 
  S14                       11.53    400.00     40.00    0.0500 1                    J15                 
  S15                        8.92    400.00     50.00    0.0500 1                    J23                 
  
  
  ************
  Node Summary
  ************
                                           Invert      Max.    Ponded    External
  Name                 Type                 Elev.     Depth      Area    Inflow  
  -------------------------------------------------------------------------------
  J0                   JUNCTION             30.99      4.00       0.0
  J1                   JUNCTION             28.99      4.00       0.0
  J2                   JUNCTION             25.99      4.00       0.0
  J3                   JUNCTION             30.99      4.00       0.0
  J4                   JUNCTION             33.99      4.00       0.0
  J5                   JUNCTION             28.99      4.00       0.0
  J6                   JUNCTION             23.79      4.00       0.0
  J7                   JUNCTION             28.39      4.00       0.0
  J8                   JUNCTION             29.99      4.00       0.0
  J9                   JUNCTION             28.69      4.00       0.0
  J10                  JUNCTION             25.99      4.00       0.0
  J11                  JUNCTION             25.69      4.00       0.0
  J12                  JUNCTION             22.79      4.00       0.0
  J13                  JUNCTION             25.29      4.00       0.0
  J14                  JUNCTION             24.59      4.00       0.0
  J15                  JUNCTION             24.19      4.00       0.0
  J16                  JUNCTION             23.39      4.00       0.0
  J17                  JUNCTION             22.09      4.00       0.0
  J18                  JUNCTION             16.00      4.00       0.0
  J20                  JUNCTION             17.70      4.00       0.0
  J21                  JUNCTION             19.00      4.00       0.0
  J23                  JUNCTION             22.29      4.00       0.0
  J24                  JUNCTION             20.89      4.00       0.0
  J25                  JUNCTION             30.19      4.00       0.0
  J19                  OUTFALL              15.50      3.60       0.0
  
  
  ************
  Link Summary
  ************
  Name             From Node        To Node          Type            Length    %Slope Roughness
  ---------------------------------------------------------------------------------------------
  C0               J0               J2               CONDUIT          214.0    2.3371    0.0110
  C1               J1               J2               CONDUIT          152.0    1.9741    0.0110
  C2               J3               J2               CONDUIT          306.0    1.6342    0.0110
  C3               J4               J3               CONDUIT          128.0    2.3444    0.0110
  C4               J2               J6               CONDUIT          293.0    0.7509    0.0110
  C5               J5               J6               CONDUIT          246.0    2.1143    0.0110
  C6               J25              J11              CONDUIT          289.0    1.5573    0.0110
  C7               J6               J12              CONDUIT          335.0    0.2985    0.0110
  C8               J7               J6               CONDUIT          187.0    2.4606    0.0110
  C9               J8               J9               CONDUIT          119.0    1.0925    0.0110
  C10              J9               J16              CONDUIT          325.0    1.6310    0.0110
  C11              J10              J11              CONDUIT          227.0    0.1322    0.0110
  C12              J12              J18              CONDUIT          401.0    1.6935    0.0110
  C13              J17              J18              CONDUIT          267.0    2.2815    0.0110
  C14              J11              J13              CONDUIT          113.0    0.3540    0.0110
  C16              J13              J17              CONDUIT          409.0    0.7824    0.0110
  C17              J24              J20              CONDUIT          329.0    0.9697    0.0110
  C18              J20              J18              CONDUIT          215.0    0.7907    0.0110
  C19              J16              J21              CONDUIT          437.0    1.0046    0.0110
  C20              J21              J20              CONDUIT          295.0    0.4407    0.0110
  C21              J23              J21              CONDUIT          204.0    1.6130    0.0110
  C23              J18              J19              CONDUIT          161.0    0.3106    0.0110
  C24              J15              J16              CONDUIT          197.0    0.4061    0.0110
  C22              J14              J12              CONDUIT          280.0    0.6429    0.0110
  
  
  *********************
  Cross Section Summary
  *********************
                                        Full     Full     Hyd.     Max.   No. of     Full
  Conduit          Shape               Depth     Area     Rad.    Width  Barrels     Flow
  ---------------------------------------------------------------------------------------
  C0               CIRCULAR             0.70     0.38     0.17     0.70        1     1.67
  C1               CIRCULAR             0.60     0.28     0.15     0.60        1     1.02
  C2               CIRCULAR             0.80     0.50     0.20     0.80        1     2.00
  C3               CIRCULAR             0.60     0.28     0.15     0.60        1     1.11
  C4               CIRCULAR             1.20     1.13     0.30     1.20        1     3.99
  C5               CIRCULAR             0.70     0.38     0.17     0.70        1     1.59
  C6               CIRCULAR             0.80     0.50     0.20     0.80        1     1.95
  C7               CIRCULAR             2.40     4.52     0.60     2.40        1    15.99
  C8               CIRCULAR             0.70     0.38     0.17     0.70        1     1.72
  C9               CIRCULAR             0.70     0.38     0.17     0.70        1     1.14
  C10              CIRCULAR             1.00     0.79     0.25     1.00        1     3.62
  C11              CIRCULAR             1.50     1.77     0.38     1.50        1     3.04
  C12              CIRCULAR             3.00     7.07     0.75     3.00        1    69.04
  C13              CIRCULAR             1.50     1.77     0.38     1.50        1    12.62
  C14              CIRCULAR             1.50     1.77     0.38     1.50        1     4.97
  C16              CIRCULAR             1.35     1.43     0.34     1.35        1     5.58
  C17              CIRCULAR             0.80     0.50     0.20     0.80        1     1.54
  C18              CIRCULAR             3.00     7.07     0.75     3.00        1    47.18
  C19              CIRCULAR             3.00     7.07     0.75     3.00        1    53.18
  C20              CIRCULAR             3.00     7.07     0.75     3.00        1    35.22
  C21              CIRCULAR             1.00     0.79     0.25     1.00        1     3.60
  C23              CIRCULAR             3.60    10.18     0.90     3.60        1    48.08
  C24              CIRCULAR             1.10     0.95     0.28     1.10        1     2.33
  C22              CIRCULAR             1.40     1.54     0.35     1.40        1     5.57
  
  
  
  *********************************************************
  NOTE: The summary statistics displayed in this report are
  based on results found at every computational time step,  
  not just on results from each reporting time step.
  *********************************************************
  
  ****************
  Analysis Options
  ****************
  Flow Units ............... CMS
  Process Models:
    Rainfall/Runoff ........ YES
    RDII ................... NO
    Snowmelt ............... NO
    Groundwater ............ NO
    Flow Routing ........... YES
    Ponding Allowed ........ NO
    Water Quality .......... NO
  Infiltration Method ...... HORTON
  Flow Routing Method ...... DYNWAVE
  Starting Date ............ 08/03/2005 07:05:00
  Ending Date .............. 08/03/2005 11:30:00
  Antecedent Dry Days ...... 0.0
  Report Time Step ......... 00:05:00
  Wet Time Step ............ 00:05:00
  Dry Time Step ............ 01:00:00
  Routing Time Step ........ 30.00 sec
  Variable Time Step ....... YES
  Maximum Trials ........... 8
  Number of Threads ........ 1
  Head Tolerance ........... 0.005000 m
  
  
  **************************        Volume         Depth
  Runoff Quantity Continuity     hectare-m            mm
  **************************     ---------       -------
  Total Precipitation ......         4.724        40.399
  Evaporation Loss .........         0.000         0.000
  Infiltration Loss ........         1.452        12.416
  Surface Runoff ...........         2.177        18.615
  Final Storage ............         1.112         9.510
  Continuity Error (%) .....        -0.349
  
  
  **************************        Volume        Volume
  Flow Routing Continuity        hectare-m      10^6 ltr
  **************************     ---------     ---------
  Dry Weather Inflow .......         0.000         0.000
  Wet Weather Inflow .......         2.164        21.636
  Groundwater Inflow .......         0.000         0.000
  RDII Inflow ..............         0.000         0.000
  External Inflow ..........         0.000         0.000
  External Outflow .........         2.114        21.139
  Flooding Loss ............         0.000         0.000
  Evaporation Loss .........         0.000         0.000
  Exfiltration Loss ........         0.000         0.000
  Initial Stored Volume ....         0.021         0.207
  Final Stored Volume ......         0.065         0.648
  Continuity Error (%) .....         0.256
  
  
  *************************
  Highest Continuity Errors
  *************************
  Node J21 (1.20%)
  
  
  ***************************
  Time-Step Critical Elements
  ***************************
  Link C14 (60.45%)
  
  
  ********************************
  Highest Flow Instability Indexes
  ********************************
  Link C9 (4)
  Link C4 (4)
  Link C7 (4)
  Link C3 (4)
  Link C10 (4)
  
  
  *************************
  Routing Time Step Summary
  *************************
  Minimum Time Step           :     2.37 sec
  Average Time Step           :    27.70 sec
  Maximum Time Step           :    30.00 sec
  Percent in Steady State     :    -0.00
  Average Iterations per Step :     2.00
  Percent Not Converging      :     0.00
  
  
  ***************************
  Subcatchment Runoff Summary
  ***************************
  
  --------------------------------------------------------------------------------------------------------
                            Total      Total      Total      Total      Total       Total     Peak  Runoff
                           Precip      Runon       Evap      Infil     Runoff      Runoff   Runoff   Coeff
  Subcatchment                 mm         mm         mm         mm         mm    10^6 ltr      CMS
  --------------------------------------------------------------------------------------------------------
  S1                        40.40       0.00       0.00       4.55      32.58        0.72     0.13   0.806
  S2                        40.40       0.00       0.00      11.38      20.66        1.50     0.23   0.511
  S3                        40.40       0.00       0.00      15.93      17.87        0.27     0.05   0.442
  S4                        40.40       0.00       0.00      18.20      10.59        0.65     0.10   0.262
  S5                        40.40       0.00       0.00      18.20       9.69        0.90     0.14   0.240
  S6                        40.40       0.00       0.00       9.10      24.03        1.68     0.26   0.595
  S7                        40.40       0.00       0.00      13.65      19.29        0.63     0.11   0.477
  S8                        40.40       0.00       0.00       6.83      25.82        2.76     0.39   0.639
  S9                        40.40       0.00       0.00      15.93      12.09        1.99     0.29   0.299
  S10                       40.40       0.00       0.00      13.65      19.75        0.54     0.09   0.489
  S11                       40.40       0.00       0.00      13.65      18.06        1.67     0.27   0.447
  S12                       40.40       0.00       0.00       9.10      22.82        2.42     0.35   0.565
  S13                       40.40       0.00       0.00       9.10      23.62        2.38     0.36   0.585
  S14                       40.40       0.00       0.00      13.65      16.17        1.86     0.28   0.400
  S15                       40.40       0.00       0.00      11.38      20.11        1.79     0.27   0.498
  
  
  ******************
  Node Depth Summary
  ******************
  
  ---------------------------------------------------------------------------------
                                 Average  Maximum  Maximum  Time of Max    Reported
                                   Depth    Depth      HGL   Occurrence   Max Depth
  Node                 Type       Meters   Meters   Meters  days hr:min      Meters
  ---------------------------------------------------------------------------------
  J0                   JUNCTION     0.11     0.18    31.17     0  01:00        0.18
  J1                   JUNCTION     0.08     0.15    29.14     0  01:00        0.14
  J2                   JUNCTION     0.16     0.26    26.25     0  01:04        0.26
  J3                   JUNCTION     0.05     0.08    31.07     0  01:02        0.08
  J4                   JUNCTION     0.05     0.09    34.08     0  01:00        0.09
  J5                   JUNCTION     0.12     0.19    29.18     0  01:00        0.19
  J6                   JUNCTION     0.24     0.37    24.16     0  01:06        0.37
  J7                   JUNCTION     0.08     0.14    28.53     0  01:00        0.13
  J8                   JUNCTION     0.09     0.14    30.13     0  01:00        0.14
  J9                   JUNCTION     0.10     0.16    28.85     0  01:01        0.15
  J10                  JUNCTION     0.18     0.30    26.29     0  01:02        0.30
  J11                  JUNCTION     0.25     0.39    26.08     0  01:04        0.39
  J12                  JUNCTION     0.17     0.26    23.05     0  01:07        0.26
  J13                  JUNCTION     0.21     0.34    25.63     0  01:05        0.34
  J14                  JUNCTION     0.14     0.22    24.81     0  01:05        0.22
  J15                  JUNCTION     0.17     0.27    24.46     0  01:01        0.26
  J16                  JUNCTION     0.13     0.20    23.59     0  01:04        0.20
  J17                  JUNCTION     0.19     0.30    22.39     0  01:06        0.30
  J18                  JUNCTION     0.40     0.63    16.63     0  01:08        0.63
  J20                  JUNCTION     0.20     0.31    18.01     0  01:07        0.31
  J21                  JUNCTION     0.19     0.30    19.30     0  01:07        0.29
  J23                  JUNCTION     0.12     0.19    22.48     0  01:00        0.19
  J24                  JUNCTION     0.16     0.26    21.15     0  01:02        0.26
  J25                  JUNCTION     0.08     0.13    30.32     0  01:01        0.12
  J19                  OUTFALL      0.40     0.63    16.13     0  01:09        0.63
  
  
  *******************
  Node Inflow Summary
  *******************
  
  -------------------------------------------------------------------------------------------------
                                  Maximum  Maximum                  Lateral       Total        Flow
                                  Lateral    Total  Time of Max      Inflow      Inflow     Balance
                                   Inflow   Inflow   Occurrence      Volume      Volume       Error
  Node                 Type           CMS      CMS  days hr:min    10^6 ltr    10^6 ltr     Percent
  -------------------------------------------------------------------------------------------------
  J0                   JUNCTION     0.234    0.234     0  01:00        1.49        1.49      -0.363
  J1                   JUNCTION     0.134    0.134     0  01:00       0.717       0.717       0.075
  J2                   JUNCTION     0.000    0.410     0  01:01           0        2.48       0.261
  J3                   JUNCTION     0.000    0.049     0  01:00           0       0.272       0.820
  J4                   JUNCTION     0.049    0.049     0  01:00       0.272       0.272      -0.026
  J5                   JUNCTION     0.260    0.260     0  01:00        1.67        1.67       0.196
  J6                   JUNCTION     0.000    0.788     0  01:04           0        5.03       0.681
  J7                   JUNCTION     0.141    0.141     0  01:00       0.893       0.893       0.181
  J8                   JUNCTION     0.103    0.103     0  01:00        0.65       0.649       0.167
  J9                   JUNCTION     0.094    0.196     0  01:00       0.537        1.18       0.383
  J10                  JUNCTION     0.273    0.273     0  01:00        1.67        1.66       0.462
  J11                  JUNCTION     0.390    0.753     0  01:02        2.74        5.03       0.748
  J12                  JUNCTION     0.000    1.070     0  01:06           0        6.96       0.189
  J13                  JUNCTION     0.000    0.748     0  01:04           0        4.99       0.540
  J14                  JUNCTION     0.291    0.291     0  01:05        1.97        1.97       0.372
  J15                  JUNCTION     0.278    0.278     0  01:00        1.85        1.85       0.284
  J16                  JUNCTION     0.000    0.472     0  01:01           0        3.03       0.889
  J17                  JUNCTION     0.349    1.096     0  01:05         2.4        7.36       0.402
  J18                  JUNCTION     0.000    3.207     0  01:07           0        21.3       0.842
  J20                  JUNCTION     0.000    1.064     0  01:06           0        7.09       0.704
  J21                  JUNCTION     0.000    0.728     0  01:04           0        4.78       1.211
  J23                  JUNCTION     0.272    0.272     0  01:00        1.78        1.78       0.124
  J24                  JUNCTION     0.359    0.359     0  01:00        2.37        2.37       0.250
  J25                  JUNCTION     0.108    0.108     0  01:00        0.63       0.629       0.243
  J19                  OUTFALL      0.000    3.199     0  01:09           0        21.1       0.000
  
  
  **********************
  Node Surcharge Summary
  **********************
  
  No nodes were surcharged.
  
  
  *********************
  Node Flooding Summary
  *********************
  
  No nodes were flooded.
  
  
  ***********************
  Outfall Loading Summary
  ***********************
  
  -----------------------------------------------------------
                         Flow       Avg       Max       Total
                         Freq      Flow      Flow      Volume
  Outfall Node           Pcnt       CMS       CMS    10^6 ltr
  -----------------------------------------------------------
  J19                  100.00     1.381     3.199      21.139
  -----------------------------------------------------------
  System               100.00     1.381     3.199      21.139
  
  
  ********************
  Link Flow Summary
  ********************
  
  -----------------------------------------------------------------------------
                                 Maximum  Time of Max   Maximum    Max/    Max/
                                  |Flow|   Occurrence   |Veloc|    Full    Full
  Link                 Type          CMS  days hr:min     m/sec    Flow   Depth
  -----------------------------------------------------------------------------
  C0                   CONDUIT     0.235     0  01:00      4.43    0.14    0.31
  C1                   CONDUIT     0.135     0  01:00      1.93    0.13    0.33
  C2                   CONDUIT     0.045     0  01:02      0.86    0.02    0.21
  C3                   CONDUIT     0.049     0  01:00      2.07    0.04    0.14
  C4                   CONDUIT     0.398     0  01:04      1.70    0.10    0.26
  C5                   CONDUIT     0.260     0  01:01      1.93    0.16    0.40
  C6                   CONDUIT     0.105     0  01:01      1.07    0.05    0.32
  C7                   CONDUIT     0.781     0  01:06      2.22    0.05    0.13
  C8                   CONDUIT     0.141     0  01:00      1.79    0.08    0.36
  C9                   CONDUIT     0.103     0  01:00      1.74    0.09    0.21
  C10                  CONDUIT     0.191     0  01:01      2.43    0.05    0.18
  C11                  CONDUIT     0.265     0  01:02      0.87    0.09    0.23
  C12                  CONDUIT     1.061     0  01:07      2.59    0.02    0.15
  C13                  CONDUIT     1.093     0  01:06      2.40    0.09    0.31
  C14                  CONDUIT     0.748     0  01:04      2.25    0.15    0.24
  C16                  CONDUIT     0.748     0  01:06      2.89    0.13    0.24
  C17                  CONDUIT     0.359     0  01:03      2.36    0.23    0.36
  C18                  CONDUIT     1.058     0  01:08      1.50    0.02    0.16
  C19                  CONDUIT     0.458     0  01:04      1.70    0.01    0.08
  C20                  CONDUIT     0.712     0  01:07      1.91    0.02    0.10
  C21                  CONDUIT     0.272     0  01:01      2.32    0.08    0.24
  C23                  CONDUIT     3.199     0  01:09      3.66    0.07    0.17
  C24                  CONDUIT     0.281     0  01:01      1.97    0.12    0.21
  C22                  CONDUIT     0.291     0  01:05      1.79    0.05    0.17
  
  
  ***************************
  Flow Classification Summary
  ***************************
  
  -------------------------------------------------------------------------------------
                      Adjusted    ---------- Fraction of Time in Flow Class ---------- 
                       /Actual         Up    Down  Sub   Sup   Up    Down  Norm  Inlet 
  Conduit               Length    Dry  Dry   Dry   Crit  Crit  Crit  Crit  Ltd   Ctrl  
  -------------------------------------------------------------------------------------
  C0                      1.00   0.00  0.00  0.00  0.04  0.96  0.00  0.00  1.00  0.00
  C1                      1.00   0.00  0.02  0.00  0.37  0.60  0.00  0.00  0.98  0.00
  C2                      1.00   0.00  0.02  0.00  0.98  0.00  0.00  0.00  0.98  0.00
  C3                      1.00   0.02  0.00  0.00  0.01  0.97  0.00  0.00  0.79  0.00
  C4                      1.00   0.00  0.00  0.00  0.35  0.65  0.00  0.00  1.00  0.00
  C5                      1.00   0.00  0.02  0.00  0.03  0.95  0.00  0.00  0.98  0.00
  C6                      1.00   0.02  0.00  0.00  0.95  0.03  0.00  0.00  0.98  0.00
  C7                      1.00   0.00  0.00  0.00  0.00  1.00  0.00  0.00  0.00  0.00
  C8                      1.00   0.00  0.02  0.00  0.93  0.04  0.00  0.00  0.98  0.00
  C9                      1.00   0.02  0.00  0.00  0.02  0.96  0.00  0.00  0.97  0.00
  C10                     1.00   0.02  0.00  0.00  0.01  0.97  0.00  0.00  0.93  0.00
  C11                     1.00   0.02  0.00  0.00  0.98  0.00  0.00  0.00  0.92  0.00
  C12                     1.00   0.00  0.00  0.00  0.88  0.12  0.00  0.00  0.99  0.00
  C13                     1.00   0.00  0.02  0.00  0.04  0.94  0.00  0.00  0.98  0.00
  C14                     1.00   0.02  0.00  0.00  0.03  0.95  0.00  0.00  0.27  0.00
  C16                     1.00   0.02  0.00  0.00  0.05  0.93  0.00  0.00  0.04  0.00
  C17                     1.00   0.02  0.00  0.00  0.02  0.96  0.00  0.00  0.90  0.00
  C18                     1.00   0.00  0.02  0.00  0.97  0.01  0.00  0.00  0.98  0.00
  C19                     1.00   0.02  0.00  0.00  0.03  0.94  0.00  0.00  0.97  0.00
  C20                     1.00   0.02  0.00  0.00  0.05  0.93  0.00  0.00  0.83  0.00
  C21                     1.00   0.02  0.00  0.00  0.01  0.97  0.00  0.00  0.94  0.00
  C23                     1.00   0.00  0.00  0.00  0.01  0.99  0.00  0.00  0.32  0.00
  C24                     1.00   0.02  0.00  0.00  0.02  0.96  0.00  0.00  0.00  0.00
  C22                     1.00   0.00  0.02  0.00  0.04  0.94  0.00  0.00  0.94  0.00
  
  
  *************************
  Conduit Surcharge Summary
  *************************
  
  No conduits were surcharged.
  
  
  ********************
  Subcatchment Results
  ********************
  
  <<< Subcatchment S1 >>>
  ---------------------------------------------------
  Date        Time        Precip.    Losses    Runoff
                            mm/hr     mm/hr       CMS
  ---------------------------------------------------
   08/03/2005 07:10:00      3.600     0.548    0.0000
   08/03/2005 07:15:00     30.000     4.235    0.0002
   08/03/2005 07:20:00     45.600     4.815    0.0138
   08/03/2005 07:25:00     24.000     2.606    0.0774
   08/03/2005 07:30:00     27.600     2.979    0.0929
   08/03/2005 07:35:00     13.200     1.469    0.1106
   08/03/2005 07:40:00     13.200     1.469    0.0924
   08/03/2005 07:45:00     15.600     1.724    0.0823
   08/03/2005 07:50:00     18.000     1.978    0.0810
   08/03/2005 07:55:00     13.200     1.469    0.0851
   08/03/2005 08:00:00     42.000     4.451    0.0787
   08/03/2005 08:05:00     20.400     2.230    0.1343
   08/03/2005 08:10:00     12.000     1.340    0.1224
   08/03/2005 08:15:00      1.200     0.146    0.0987
   08/03/2005 08:20:00      0.000     0.000    0.0657
   08/03/2005 08:25:00      1.200     0.146    0.0454
   08/03/2005 08:30:00     14.400     1.597    0.0348
   08/03/2005 08:35:00      3.600     0.421    0.0470
   08/03/2005 08:40:00      1.200     0.146    0.0393
   08/03/2005 08:45:00      0.000     0.000    0.0308
   08/03/2005 08:50:00      2.400     0.284    0.0236
   08/03/2005 08:55:00      3.600     0.421    0.0214
   08/03/2005 09:00:00     14.400     1.597    0.0212
   08/03/2005 09:05:00     20.400     2.230    0.0352
   08/03/2005 09:10:00      1.200     0.146    0.0572
   08/03/2005 09:15:00      0.000     0.000    0.0420
   08/03/2005 09:20:00      0.000     0.000    0.0309
   08/03/2005 09:25:00      0.000     0.000    0.0236
   08/03/2005 09:30:00      0.000     0.000    0.0186
   08/03/2005 09:35:00     10.800     1.211    0.0150
   08/03/2005 09:40:00     10.800     1.211    0.0245
   08/03/2005 09:45:00      7.200     0.820    0.0330
   08/03/2005 09:50:00     19.200     2.104    0.0346
   08/03/2005 09:55:00     19.200     2.104    0.0546
   08/03/2005 10:00:00     12.000     1.340    0.0703
   08/03/2005 10:05:00      8.400     0.951    0.0681
   08/03/2005 10:10:00      9.600     1.082    0.0605
   08/03/2005 10:15:00      6.000     0.688    0.0577
   08/03/2005 10:20:00      1.200     0.146    0.0499
   08/03/2005 10:25:00      2.400     0.284    0.0377
   08/03/2005 10:30:00      2.400     0.284    0.0314
   08/03/2005 10:35:00      3.600     0.421    0.0270
   08/03/2005 10:40:00      2.400     0.284    0.0254
   08/03/2005 10:45:00      3.600     0.421    0.0227
   08/03/2005 10:50:00      4.800     0.555    0.0222
   08/03/2005 10:55:00      2.400     0.284    0.0232
   08/03/2005 11:00:00      6.000     0.688    0.0211
   08/03/2005 11:05:00      2.400     0.284    0.0238
   08/03/2005 11:10:00      2.400     0.284    0.0214
   08/03/2005 11:15:00      1.200     0.146    0.0197
   08/03/2005 11:20:00      2.400     0.284    0.0171
   08/03/2005 11:25:00      2.400     0.284    0.0164
  
  
  <<< Subcatchment S2 >>>
  ---------------------------------------------------
  Date        Time        Precip.    Losses    Runoff
                            mm/hr     mm/hr       CMS
  ---------------------------------------------------
   08/03/2005 07:10:00      3.600     1.370    0.0000
   08/03/2005 07:15:00     30.000    10.586    0.0000
   08/03/2005 07:20:00     45.600    12.037    0.0144
   08/03/2005 07:25:00     24.000     6.514    0.0886
   08/03/2005 07:30:00     27.600     7.447    0.1235
   08/03/2005 07:35:00     13.200     3.672    0.1630
   08/03/2005 07:40:00     13.200     3.672    0.1555
   08/03/2005 07:45:00     15.600     4.310    0.1502
   08/03/2005 07:50:00     18.000     4.944    0.1529
   08/03/2005 07:55:00     13.200     3.672    0.1616
   08/03/2005 08:00:00     42.000    11.127    0.1554
   08/03/2005 08:05:00     20.400     5.575    0.2341
   08/03/2005 08:10:00     12.000     3.350    0.2288
   08/03/2005 08:15:00      1.200     0.364    0.2006
   08/03/2005 08:20:00      0.000     0.000    0.1522
   08/03/2005 08:25:00      1.200     0.364    0.1170
   08/03/2005 08:30:00     14.400     3.991    0.0954
   08/03/2005 08:35:00      3.600     1.052    0.1090
   08/03/2005 08:40:00      1.200     0.364    0.0952
   08/03/2005 08:45:00      0.000     0.000    0.0798
   08/03/2005 08:50:00      2.400     0.711    0.0661
   08/03/2005 08:55:00      3.600     1.052    0.0601
   08/03/2005 09:00:00     14.400     3.991    0.0576
   08/03/2005 09:05:00     20.400     5.575    0.0764
   08/03/2005 09:10:00      1.200     0.364    0.1070
   08/03/2005 09:15:00      0.000     0.000    0.0891
   08/03/2005 09:20:00      0.000     0.000    0.0735
   08/03/2005 09:25:00      0.000     0.000    0.0619
   08/03/2005 09:30:00      0.000     0.000    0.0530
   08/03/2005 09:35:00     10.800     3.028    0.0460
   08/03/2005 09:40:00     10.800     3.028    0.0587
   08/03/2005 09:45:00      7.200     2.050    0.0705
   08/03/2005 09:50:00     19.200     5.260    0.0735
   08/03/2005 09:55:00     19.200     5.260    0.1018
   08/03/2005 10:00:00     12.000     3.350    0.1272
   08/03/2005 10:05:00      8.400     2.378    0.1302
   08/03/2005 10:10:00      9.600     2.704    0.1239
   08/03/2005 10:15:00      6.000     1.720    0.1222
   08/03/2005 10:20:00      1.200     0.364    0.1125
   08/03/2005 10:25:00      2.400     0.711    0.0946
   08/03/2005 10:30:00      2.400     0.711    0.0838
   08/03/2005 10:35:00      3.600     1.052    0.0756
   08/03/2005 10:40:00      2.400     0.711    0.0715
   08/03/2005 10:45:00      3.600     1.052    0.0659
   08/03/2005 10:50:00      4.800     1.388    0.0637
   08/03/2005 10:55:00      2.400     0.711    0.0640
   08/03/2005 11:00:00      6.000     1.720    0.0600
   08/03/2005 11:05:00      2.400     0.711    0.0631
   08/03/2005 11:10:00      2.400     0.711    0.0592
   08/03/2005 11:15:00      1.200     0.364    0.0561
   08/03/2005 11:20:00      2.400     0.711    0.0515
   08/03/2005 11:25:00      2.400     0.711    0.0497
  
  
  <<< Subcatchment S3 >>>
  ---------------------------------------------------
  Date        Time        Precip.    Losses    Runoff
                            mm/hr     mm/hr       CMS
  ---------------------------------------------------
   08/03/2005 07:10:00      3.600     1.918    0.0000
   08/03/2005 07:15:00     30.000    14.821    0.0002
   08/03/2005 07:20:00     45.600    16.851    0.0111
   08/03/2005 07:25:00     24.000     9.120    0.0439
   08/03/2005 07:30:00     27.600    10.426    0.0340
   08/03/2005 07:35:00     13.200     5.140    0.0352
   08/03/2005 07:40:00     13.200     5.140    0.0230
   08/03/2005 07:45:00     15.600     6.034    0.0198
   08/03/2005 07:50:00     18.000     6.922    0.0211
   08/03/2005 07:55:00     13.200     5.140    0.0242
   08/03/2005 08:00:00     42.000    15.578    0.0215
   08/03/2005 08:05:00     20.400     7.804    0.0493
   08/03/2005 08:10:00     12.000     4.691    0.0374
   08/03/2005 08:15:00      1.200     0.509    0.0273
   08/03/2005 08:20:00      0.000     0.000    0.0159
   08/03/2005 08:25:00      1.200     0.509    0.0111
   08/03/2005 08:30:00     14.400     5.588    0.0095
   08/03/2005 08:35:00      3.600     1.472    0.0177
   08/03/2005 08:40:00      1.200     0.509    0.0142
   08/03/2005 08:45:00      0.000     0.000    0.0111
   08/03/2005 08:50:00      2.400     0.995    0.0088
   08/03/2005 08:55:00      3.600     1.472    0.0088
   08/03/2005 09:00:00     14.400     5.588    0.0094
   08/03/2005 09:05:00     20.400     7.804    0.0176
   08/03/2005 09:10:00      1.200     0.509    0.0280
   08/03/2005 09:15:00      0.000     0.000    0.0165
   08/03/2005 09:20:00      0.000     0.000    0.0116
   08/03/2005 09:25:00      0.000     0.000    0.0093
   08/03/2005 09:30:00      0.000     0.000    0.0080
   08/03/2005 09:35:00     10.800     4.239    0.0071
   08/03/2005 09:40:00     10.800     4.239    0.0127
   08/03/2005 09:45:00      7.200     2.870    0.0170
   08/03/2005 09:50:00     19.200     7.364    0.0166
   08/03/2005 09:55:00     19.200     7.364    0.0266
   08/03/2005 10:00:00     12.000     4.691    0.0315
   08/03/2005 10:05:00      8.400     3.329    0.0272
   08/03/2005 10:10:00      9.600     3.785    0.0230
   08/03/2005 10:15:00      6.000     2.408    0.0224
   08/03/2005 10:20:00      1.200     0.509    0.0194
   08/03/2005 10:25:00      2.400     0.995    0.0147
   08/03/2005 10:30:00      2.400     0.995    0.0132
   08/03/2005 10:35:00      3.600     1.472    0.0122
   08/03/2005 10:40:00      2.400     0.995    0.0123
   08/03/2005 10:45:00      3.600     1.472    0.0115
   08/03/2005 10:50:00      4.800     1.943    0.0117
   08/03/2005 10:55:00      2.400     0.995    0.0125
   08/03/2005 11:00:00      6.000     2.408    0.0114
   08/03/2005 11:05:00      2.400     0.995    0.0130
   08/03/2005 11:10:00      2.400     0.995    0.0116
   08/03/2005 11:15:00      1.200     0.509    0.0107
   08/03/2005 11:20:00      2.400     0.995    0.0095
   08/03/2005 11:25:00      2.400     0.995    0.0093
  
  
  <<< Subcatchment S4 >>>
  ---------------------------------------------------
  Date        Time        Precip.    Losses    Runoff
                            mm/hr     mm/hr       CMS
  ---------------------------------------------------
   08/03/2005 07:10:00      3.600     2.192    0.0000
   08/03/2005 07:15:00     30.000    16.938    0.0000
   08/03/2005 07:20:00     45.600    19.259    0.0133
   08/03/2005 07:25:00     24.000    10.422    0.0698
   08/03/2005 07:30:00     27.600    11.915    0.0758
   08/03/2005 07:35:00     13.200     5.874    0.0855
   08/03/2005 07:40:00     13.200     5.874    0.0666
   08/03/2005 07:45:00     15.600     6.896    0.0576
   08/03/2005 07:50:00     18.000     7.911    0.0569
   08/03/2005 07:55:00     13.200     5.874    0.0607
   08/03/2005 08:00:00     42.000    17.803    0.0557
   08/03/2005 08:05:00     20.400     8.919    0.1031
   08/03/2005 08:10:00     12.000     5.361    0.0907
   08/03/2005 08:15:00      1.200     0.582    0.0713
   08/03/2005 08:20:00      0.000     0.000    0.0460
   08/03/2005 08:25:00      1.200     0.582    0.0319
   08/03/2005 08:30:00     14.400     6.386    0.0255
   08/03/2005 08:35:00      3.600     1.683    0.0374
   08/03/2005 08:40:00      1.200     0.582    0.0320
   08/03/2005 08:45:00      0.000     0.000    0.0260
   08/03/2005 08:50:00      2.400     1.138    0.0210
   08/03/2005 08:55:00      3.600     1.683    0.0201
   08/03/2005 09:00:00     14.400     6.386    0.0206
   08/03/2005 09:05:00     20.400     8.919    0.0334
   08/03/2005 09:10:00      1.200     0.582    0.0529
   08/03/2005 09:15:00      0.000     0.000    0.0389
   08/03/2005 09:20:00      0.000     0.000    0.0297
   08/03/2005 09:25:00      0.000     0.000    0.0243
   08/03/2005 09:30:00      0.000     0.000    0.0208
   08/03/2005 09:35:00     10.800     4.845    0.0184
   08/03/2005 09:40:00     10.800     4.845    0.0271
   08/03/2005 09:45:00      7.200     3.281    0.0349
   08/03/2005 09:50:00     19.200     8.416    0.0363
   08/03/2005 09:55:00     19.200     8.416    0.0541
   08/03/2005 10:00:00     12.000     5.361    0.0671
   08/03/2005 10:05:00      8.400     3.805    0.0642
   08/03/2005 10:10:00      9.600     4.326    0.0576
   08/03/2005 10:15:00      6.000     2.753    0.0558
   08/03/2005 10:20:00      1.200     0.582    0.0499
   08/03/2005 10:25:00      2.400     1.138    0.0404
   08/03/2005 10:30:00      2.400     1.138    0.0362
   08/03/2005 10:35:00      3.600     1.683    0.0334
   08/03/2005 10:40:00      2.400     1.138    0.0328
   08/03/2005 10:45:00      3.600     1.683    0.0312
   08/03/2005 10:50:00      4.800     2.220    0.0312
   08/03/2005 10:55:00      2.400     1.138    0.0325
   08/03/2005 11:00:00      6.000     2.753    0.0310
   08/03/2005 11:05:00      2.400     1.138    0.0337
   08/03/2005 11:10:00      2.400     1.138    0.0318
   08/03/2005 11:15:00      1.200     0.582    0.0305
   08/03/2005 11:20:00      2.400     1.138    0.0284
   08/03/2005 11:25:00      2.400     1.138    0.0279
  
  
  <<< Subcatchment S5 >>>
  ---------------------------------------------------
  Date        Time        Precip.    Losses    Runoff
                            mm/hr     mm/hr       CMS
  ---------------------------------------------------
   08/03/2005 07:10:00      3.600     2.192    0.0000
   08/03/2005 07:15:00     30.000    16.938    0.0000
   08/03/2005 07:20:00     45.600    19.259    0.0138
   08/03/2005 07:25:00     24.000    10.422    0.0783
   08/03/2005 07:30:00     27.600    11.915    0.0952
   08/03/2005 07:35:00     13.200     5.874    0.1142
   08/03/2005 07:40:00     13.200     5.874    0.0964
   08/03/2005 07:45:00     15.600     6.896    0.0863
   08/03/2005 07:50:00     18.000     7.911    0.0852
   08/03/2005 07:55:00     13.200     5.874    0.0895
   08/03/2005 08:00:00     42.000    17.803    0.0832
   08/03/2005 08:05:00     20.400     8.919    0.1407
   08/03/2005 08:10:00     12.000     5.361    0.1297
   08/03/2005 08:15:00      1.200     0.582    0.1063
   08/03/2005 08:20:00      0.000     0.000    0.0729
   08/03/2005 08:25:00      1.200     0.582    0.0521
   08/03/2005 08:30:00     14.400     6.386    0.0413
   08/03/2005 08:35:00      3.600     1.683    0.0543
   08/03/2005 08:40:00      1.200     0.582    0.0468
   08/03/2005 08:45:00      0.000     0.000    0.0383
   08/03/2005 08:50:00      2.400     1.138    0.0311
   08/03/2005 08:55:00      3.600     1.683    0.0291
   08/03/2005 09:00:00     14.400     6.386    0.0290
   08/03/2005 09:05:00     20.400     8.919    0.0441
   08/03/2005 09:10:00      1.200     0.582    0.0675
   08/03/2005 09:15:00      0.000     0.000    0.0526
   08/03/2005 09:20:00      0.000     0.000    0.0414
   08/03/2005 09:25:00      0.000     0.000    0.0341
   08/03/2005 09:30:00      0.000     0.000    0.0291
   08/03/2005 09:35:00     10.800     4.845    0.0255
   08/03/2005 09:40:00     10.800     4.845    0.0357
   08/03/2005 09:45:00      7.200     3.281    0.0450
   08/03/2005 09:50:00     19.200     8.416    0.0472
   08/03/2005 09:55:00     19.200     8.416    0.0687
   08/03/2005 10:00:00     12.000     5.361    0.0862
   08/03/2005 10:05:00      8.400     3.805    0.0851
   08/03/2005 10:10:00      9.600     4.326    0.0782
   08/03/2005 10:15:00      6.000     2.753    0.0762
   08/03/2005 10:20:00      1.200     0.582    0.0688
   08/03/2005 10:25:00      2.400     1.138    0.0565
   08/03/2005 10:30:00      2.400     1.138    0.0502
   08/03/2005 10:35:00      3.600     1.683    0.0459
   08/03/2005 10:40:00      2.400     1.138    0.0445
   08/03/2005 10:45:00      3.600     1.683    0.0419
   08/03/2005 10:50:00      4.800     2.220    0.0415
   08/03/2005 10:55:00      2.400     1.138    0.0428
   08/03/2005 11:00:00      6.000     2.753    0.0407
   08/03/2005 11:05:00      2.400     1.138    0.0438
   08/03/2005 11:10:00      2.400     1.138    0.0416
   08/03/2005 11:15:00      1.200     0.582    0.0399
   08/03/2005 11:20:00      2.400     1.138    0.0372
   08/03/2005 11:25:00      2.400     1.138    0.0365
  
  
  <<< Subcatchment S6 >>>
  ---------------------------------------------------
  Date        Time        Precip.    Losses    Runoff
                            mm/hr     mm/hr       CMS
  ---------------------------------------------------
   08/03/2005 07:10:00      3.600     1.096    0.0000
   08/03/2005 07:15:00     30.000     8.469    0.0000
   08/03/2005 07:20:00     45.600     9.629    0.0145
   08/03/2005 07:25:00     24.000     5.211    0.0902
   08/03/2005 07:30:00     27.600     5.957    0.1285
   08/03/2005 07:35:00     13.200     2.937    0.1727
   08/03/2005 07:40:00     13.200     2.937    0.1685
   08/03/2005 07:45:00     15.600     3.448    0.1656
   08/03/2005 07:50:00     18.000     3.955    0.1702
   08/03/2005 07:55:00     13.200     2.937    0.1808
   08/03/2005 08:00:00     42.000     8.902    0.1755
   08/03/2005 08:05:00     20.400     4.460    0.2597
   08/03/2005 08:10:00     12.000     2.680    0.2566
   08/03/2005 08:15:00      1.200     0.291    0.2281
   08/03/2005 08:20:00      0.000     0.000    0.1767
   08/03/2005 08:25:00      1.200     0.291    0.1382
   08/03/2005 08:30:00     14.400     3.193    0.1137
   08/03/2005 08:35:00      3.600     0.841    0.1273
   08/03/2005 08:40:00      1.200     0.291    0.1116
   08/03/2005 08:45:00      0.000     0.000    0.0943
   08/03/2005 08:50:00      2.400     0.569    0.0786
   08/03/2005 08:55:00      3.600     0.841    0.0714
   08/03/2005 09:00:00     14.400     3.193    0.0679
   08/03/2005 09:05:00     20.400     4.460    0.0876
   08/03/2005 09:10:00      1.200     0.291    0.1198
   08/03/2005 09:15:00      0.000     0.000    0.1009
   08/03/2005 09:20:00      0.000     0.000    0.0841
   08/03/2005 09:25:00      0.000     0.000    0.0712
   08/03/2005 09:30:00      0.000     0.000    0.0612
   08/03/2005 09:35:00     10.800     2.422    0.0532
   08/03/2005 09:40:00     10.800     2.422    0.0665
   08/03/2005 09:45:00      7.200     1.640    0.0787
   08/03/2005 09:50:00     19.200     4.208    0.0818
   08/03/2005 09:55:00     19.200     4.208    0.1118
   08/03/2005 10:00:00     12.000     2.680    0.1389
   08/03/2005 10:05:00      8.400     1.902    0.1429
   08/03/2005 10:10:00      9.600     2.163    0.1369
   08/03/2005 10:15:00      6.000     1.376    0.1353
   08/03/2005 10:20:00      1.200     0.291    0.1252
   08/03/2005 10:25:00      2.400     0.569    0.1061
   08/03/2005 10:30:00      2.400     0.569    0.0942
   08/03/2005 10:35:00      3.600     0.841    0.0850
   08/03/2005 10:40:00      2.400     0.569    0.0801
   08/03/2005 10:45:00      3.600     0.841    0.0737
   08/03/2005 10:50:00      4.800     1.110    0.0709
   08/03/2005 10:55:00      2.400     0.569    0.0709
   08/03/2005 11:00:00      6.000     1.376    0.0663
   08/03/2005 11:05:00      2.400     0.569    0.0693
   08/03/2005 11:10:00      2.400     0.569    0.0649
   08/03/2005 11:15:00      1.200     0.291    0.0613
   08/03/2005 11:20:00      2.400     0.569    0.0562
   08/03/2005 11:25:00      2.400     0.569    0.0540
  
  
  <<< Subcatchment S7 >>>
  ---------------------------------------------------
  Date        Time        Precip.    Losses    Runoff
                            mm/hr     mm/hr       CMS
  ---------------------------------------------------
   08/03/2005 07:10:00      3.600     1.644    0.0000
   08/03/2005 07:15:00     30.000    12.704    0.0000
   08/03/2005 07:20:00     45.600    14.444    0.0134
   08/03/2005 07:25:00     24.000     7.817    0.0712
   08/03/2005 07:30:00     27.600     8.936    0.0787
   08/03/2005 07:35:00     13.200     4.406    0.0896
   08/03/2005 07:40:00     13.200     4.406    0.0706
   08/03/2005 07:45:00     15.600     5.172    0.0613
   08/03/2005 07:50:00     18.000     5.933    0.0604
   08/03/2005 07:55:00     13.200     4.406    0.0642
   08/03/2005 08:00:00     42.000    13.352    0.0590
   08/03/2005 08:05:00     20.400     6.690    0.1077
   08/03/2005 08:10:00     12.000     4.021    0.0953
   08/03/2005 08:15:00      1.200     0.437    0.0751
   08/03/2005 08:20:00      0.000     0.000    0.0486
   08/03/2005 08:25:00      1.200     0.437    0.0335
   08/03/2005 08:30:00     14.400     4.790    0.0264
   08/03/2005 08:35:00      3.600     1.262    0.0383
   08/03/2005 08:40:00      1.200     0.437    0.0324
   08/03/2005 08:45:00      0.000     0.000    0.0260
   08/03/2005 08:50:00      2.400     0.853    0.0206
   08/03/2005 08:55:00      3.600     1.262    0.0194
   08/03/2005 09:00:00     14.400     4.790    0.0198
   08/03/2005 09:05:00     20.400     6.690    0.0327
   08/03/2005 09:10:00      1.200     0.437    0.0524
   08/03/2005 09:15:00      0.000     0.000    0.0381
   08/03/2005 09:20:00      0.000     0.000    0.0285
   08/03/2005 09:25:00      0.000     0.000    0.0227
   08/03/2005 09:30:00      0.000     0.000    0.0188
   08/03/2005 09:35:00     10.800     3.634    0.0162
   08/03/2005 09:40:00     10.800     3.634    0.0249
   08/03/2005 09:45:00      7.200     2.460    0.0327
   08/03/2005 09:50:00     19.200     6.312    0.0339
   08/03/2005 09:55:00     19.200     6.312    0.0518
   08/03/2005 10:00:00     12.000     4.021    0.0651
   08/03/2005 10:05:00      8.400     2.854    0.0620
   08/03/2005 10:10:00      9.600     3.245    0.0550
   08/03/2005 10:15:00      6.000     2.064    0.0528
   08/03/2005 10:20:00      1.200     0.437    0.0464
   08/03/2005 10:25:00      2.400     0.853    0.0363
   08/03/2005 10:30:00      2.400     0.853    0.0316
   08/03/2005 10:35:00      3.600     1.262    0.0284
   08/03/2005 10:40:00      2.400     0.853    0.0275
   08/03/2005 10:45:00      3.600     1.262    0.0255
   08/03/2005 10:50:00      4.800     1.665    0.0253
   08/03/2005 10:55:00      2.400     0.853    0.0265
   08/03/2005 11:00:00      6.000     2.064    0.0247
   08/03/2005 11:05:00      2.400     0.853    0.0273
   08/03/2005 11:10:00      2.400     0.853    0.0252
   08/03/2005 11:15:00      1.200     0.437    0.0237
   08/03/2005 11:20:00      2.400     0.853    0.0214
   08/03/2005 11:25:00      2.400     0.853    0.0208
  
  
  <<< Subcatchment S8 >>>
  ---------------------------------------------------
  Date        Time        Precip.    Losses    Runoff
                            mm/hr     mm/hr       CMS
  ---------------------------------------------------
   08/03/2005 07:10:00      3.600     0.822    0.0000
   08/03/2005 07:15:00     30.000     6.352    0.0000
   08/03/2005 07:20:00     45.600     7.222    0.0147
   08/03/2005 07:25:00     24.000     3.908    0.0951
   08/03/2005 07:30:00     27.600     4.468    0.1448
   08/03/2005 07:35:00     13.200     2.203    0.2063
   08/03/2005 07:40:00     13.200     2.203    0.2170
   08/03/2005 07:45:00     15.600     2.586    0.2263
   08/03/2005 07:50:00     18.000     2.967    0.2426
   08/03/2005 07:55:00     13.200     2.203    0.2651
   08/03/2005 08:00:00     42.000     6.676    0.2677
   08/03/2005 08:05:00     20.400     3.345    0.3785
   08/03/2005 08:10:00     12.000     2.010    0.3895
   08/03/2005 08:15:00      1.200     0.218    0.3653
   08/03/2005 08:20:00      0.000     0.000    0.3055
   08/03/2005 08:25:00      1.200     0.218    0.2554
   08/03/2005 08:30:00     14.400     2.395    0.2201
   08/03/2005 08:35:00      3.600     0.631    0.2346
   08/03/2005 08:40:00      1.200     0.218    0.2114
   08/03/2005 08:45:00      0.000     0.000    0.1852
   08/03/2005 08:50:00      2.400     0.427    0.1604
   08/03/2005 08:55:00      3.600     0.631    0.1468
   08/03/2005 09:00:00     14.400     2.395    0.1386
   08/03/2005 09:05:00     20.400     3.345    0.1620
   08/03/2005 09:10:00      1.200     0.218    0.2021
   08/03/2005 09:15:00      0.000     0.000    0.1780
   08/03/2005 09:20:00      0.000     0.000    0.1549
   08/03/2005 09:25:00      0.000     0.000    0.1360
   08/03/2005 09:30:00      0.000     0.000    0.1203
   08/03/2005 09:35:00     10.800     1.817    0.1072
   08/03/2005 09:40:00     10.800     1.817    0.1229
   08/03/2005 09:45:00      7.200     1.230    0.1375
   08/03/2005 09:50:00     19.200     3.156    0.1409
   08/03/2005 09:55:00     19.200     3.156    0.1786
   08/03/2005 10:00:00     12.000     2.010    0.2140
   08/03/2005 10:05:00      8.400     1.427    0.2224
   08/03/2005 10:10:00      9.600     1.622    0.2180
   08/03/2005 10:15:00      6.000     1.032    0.2182
   08/03/2005 10:20:00      1.200     0.218    0.2069
   08/03/2005 10:25:00      2.400     0.427    0.1828
   08/03/2005 10:30:00      2.400     0.427    0.1666
   08/03/2005 10:35:00      3.600     0.631    0.1531
   08/03/2005 10:40:00      2.400     0.427    0.1450
   08/03/2005 10:45:00      3.600     0.631    0.1349
   08/03/2005 10:50:00      4.800     0.833    0.1294
   08/03/2005 10:55:00      2.400     0.427    0.1277
   08/03/2005 11:00:00      6.000     1.032    0.1202
   08/03/2005 11:05:00      2.400     0.427    0.1227
   08/03/2005 11:10:00      2.400     0.427    0.1158
   08/03/2005 11:15:00      1.200     0.218    0.1099
   08/03/2005 11:20:00      2.400     0.427    0.1019
   08/03/2005 11:25:00      2.400     0.427    0.0977
  
  
  <<< Subcatchment S9 >>>
  ---------------------------------------------------
  Date        Time        Precip.    Losses    Runoff
                            mm/hr     mm/hr       CMS
  ---------------------------------------------------
   08/03/2005 07:10:00      3.600     1.918    0.0000
   08/03/2005 07:15:00     30.000    14.821    0.0000
   08/03/2005 07:20:00     45.600    16.851    0.0146
   08/03/2005 07:25:00     24.000     9.120    0.0918
   08/03/2005 07:30:00     27.600    10.426    0.1337
   08/03/2005 07:35:00     13.200     5.140    0.1831
   08/03/2005 07:40:00     13.200     5.140    0.1829
   08/03/2005 07:45:00     15.600     6.034    0.1830
   08/03/2005 07:50:00     18.000     6.922    0.1903
   08/03/2005 07:55:00     13.200     5.140    0.2037
   08/03/2005 08:00:00     42.000    15.578    0.1999
   08/03/2005 08:05:00     20.400     7.804    0.2911
   08/03/2005 08:10:00     12.000     4.691    0.2911
   08/03/2005 08:15:00      1.200     0.509    0.2631
   08/03/2005 08:20:00      0.000     0.000    0.2087
   08/03/2005 08:25:00      1.200     0.509    0.1666
   08/03/2005 08:30:00     14.400     5.588    0.1391
   08/03/2005 08:35:00      3.600     1.472    0.1529
   08/03/2005 08:40:00      1.200     0.509    0.1353
   08/03/2005 08:45:00      0.000     0.000    0.1157
   08/03/2005 08:50:00      2.400     0.995    0.0978
   08/03/2005 08:55:00      3.600     1.472    0.0891
   08/03/2005 09:00:00     14.400     5.588    0.0847
   08/03/2005 09:05:00     20.400     7.804    0.1056
   08/03/2005 09:10:00      1.200     0.509    0.1402
   08/03/2005 09:15:00      0.000     0.000    0.1203
   08/03/2005 09:20:00      0.000     0.000    0.1021
   08/03/2005 09:25:00      0.000     0.000    0.0879
   08/03/2005 09:30:00      0.000     0.000    0.0766
   08/03/2005 09:35:00     10.800     4.239    0.0676
   08/03/2005 09:40:00     10.800     4.239    0.0818
   08/03/2005 09:45:00      7.200     2.870    0.0950
   08/03/2005 09:50:00     19.200     7.364    0.0985
   08/03/2005 09:55:00     19.200     7.364    0.1309
   08/03/2005 10:00:00     12.000     4.691    0.1607
   08/03/2005 10:05:00      8.400     3.329    0.1663
   08/03/2005 10:10:00      9.600     3.785    0.1611
   08/03/2005 10:15:00      6.000     2.408    0.1604
   08/03/2005 10:20:00      1.200     0.509    0.1503
   08/03/2005 10:25:00      2.400     0.995    0.1301
   08/03/2005 10:30:00      2.400     0.995    0.1174
   08/03/2005 10:35:00      3.600     1.472    0.1073
   08/03/2005 10:40:00      2.400     0.995    0.1019
   08/03/2005 10:45:00      3.600     1.472    0.0949
   08/03/2005 10:50:00      4.800     1.943    0.0917
   08/03/2005 10:55:00      2.400     0.995    0.0917
   08/03/2005 11:00:00      6.000     2.408    0.0866
   08/03/2005 11:05:00      2.400     0.995    0.0899
   08/03/2005 11:10:00      2.400     0.995    0.0852
   08/03/2005 11:15:00      1.200     0.509    0.0813
   08/03/2005 11:20:00      2.400     0.995    0.0757
   08/03/2005 11:25:00      2.400     0.995    0.0732
  
  
  <<< Subcatchment S10 >>>
  ---------------------------------------------------
  Date        Time        Precip.    Losses    Runoff
                            mm/hr     mm/hr       CMS
  ---------------------------------------------------
   08/03/2005 07:10:00      3.600     1.644    0.0000
   08/03/2005 07:15:00     30.000    12.704    0.0000
   08/03/2005 07:20:00     45.600    14.444    0.0131
   08/03/2005 07:25:00     24.000     7.817    0.0669
   08/03/2005 07:30:00     27.600     8.936    0.0699
   08/03/2005 07:35:00     13.200     4.406    0.0776
   08/03/2005 07:40:00     13.200     4.406    0.0589
   08/03/2005 07:45:00     15.600     5.172    0.0506
   08/03/2005 07:50:00     18.000     5.933    0.0502
   08/03/2005 07:55:00     13.200     4.406    0.0539
   08/03/2005 08:00:00     42.000    13.352    0.0492
   08/03/2005 08:05:00     20.400     6.690    0.0937
   08/03/2005 08:10:00     12.000     4.021    0.0810
   08/03/2005 08:15:00      1.200     0.437    0.0626
   08/03/2005 08:20:00      0.000     0.000    0.0394
   08/03/2005 08:25:00      1.200     0.437    0.0268
   08/03/2005 08:30:00     14.400     4.790    0.0212
   08/03/2005 08:35:00      3.600     1.262    0.0325
   08/03/2005 08:40:00      1.200     0.437    0.0274
   08/03/2005 08:45:00      0.000     0.000    0.0217
   08/03/2005 08:50:00      2.400     0.853    0.0172
   08/03/2005 08:55:00      3.600     1.262    0.0163
   08/03/2005 09:00:00     14.400     4.790    0.0168
   08/03/2005 09:05:00     20.400     6.690    0.0288
   08/03/2005 09:10:00      1.200     0.437    0.0467
   08/03/2005 09:15:00      0.000     0.000    0.0327
   08/03/2005 09:20:00      0.000     0.000    0.0240
   08/03/2005 09:25:00      0.000     0.000    0.0189
   08/03/2005 09:30:00      0.000     0.000    0.0157
   08/03/2005 09:35:00     10.800     3.634    0.0134
   08/03/2005 09:40:00     10.800     3.634    0.0215
   08/03/2005 09:45:00      7.200     2.460    0.0286
   08/03/2005 09:50:00     19.200     6.312    0.0295
   08/03/2005 09:55:00     19.200     6.312    0.0458
   08/03/2005 10:00:00     12.000     4.021    0.0572
   08/03/2005 10:05:00      8.400     2.854    0.0535
   08/03/2005 10:10:00      9.600     3.245    0.0468
   08/03/2005 10:15:00      6.000     2.064    0.0448
   08/03/2005 10:20:00      1.200     0.437    0.0391
   08/03/2005 10:25:00      2.400     0.853    0.0302
   08/03/2005 10:30:00      2.400     0.853    0.0262
   08/03/2005 10:35:00      3.600     1.262    0.0236
   08/03/2005 10:40:00      2.400     0.853    0.0230
   08/03/2005 10:45:00      3.600     1.262    0.0214
   08/03/2005 10:50:00      4.800     1.665    0.0213
   08/03/2005 10:55:00      2.400     0.853    0.0224
   08/03/2005 11:00:00      6.000     2.064    0.0208
   08/03/2005 11:05:00      2.400     0.853    0.0232
   08/03/2005 11:10:00      2.400     0.853    0.0213
   08/03/2005 11:15:00      1.200     0.437    0.0200
   08/03/2005 11:20:00      2.400     0.853    0.0179
   08/03/2005 11:25:00      2.400     0.853    0.0174
  
  
  <<< Subcatchment S11 >>>
  ---------------------------------------------------
  Date        Time        Precip.    Losses    Runoff
                            mm/hr     mm/hr       CMS
  ---------------------------------------------------
   08/03/2005 07:10:00      3.600     1.644    0.0000
   08/03/2005 07:15:00     30.000    12.704    0.0000
   08/03/2005 07:20:00     45.600    14.444    0.0244
   08/03/2005 07:25:00     24.000     7.817    0.1413
   08/03/2005 07:30:00     27.600     8.936    0.1773
   08/03/2005 07:35:00     13.200     4.406    0.2171
   08/03/2005 07:40:00     13.200     4.406    0.1880
   08/03/2005 07:45:00     15.600     5.172    0.1707
   08/03/2005 07:50:00     18.000     5.933    0.1690
   08/03/2005 07:55:00     13.200     4.406    0.1772
   08/03/2005 08:00:00     42.000    13.352    0.1656
   08/03/2005 08:05:00     20.400     6.690    0.2726
   08/03/2005 08:10:00     12.000     4.021    0.2544
   08/03/2005 08:15:00      1.200     0.437    0.2111
   08/03/2005 08:20:00      0.000     0.000    0.1474
   08/03/2005 08:25:00      1.200     0.437    0.1065
   08/03/2005 08:30:00     14.400     4.790    0.0843
   08/03/2005 08:35:00      3.600     1.262    0.1073
   08/03/2005 08:40:00      1.200     0.437    0.0922
   08/03/2005 08:45:00      0.000     0.000    0.0755
   08/03/2005 08:50:00      2.400     0.853    0.0609
   08/03/2005 08:55:00      3.600     1.262    0.0562
   08/03/2005 09:00:00     14.400     4.790    0.0555
   08/03/2005 09:05:00     20.400     6.690    0.0828
   08/03/2005 09:10:00      1.200     0.437    0.1258
   08/03/2005 09:15:00      0.000     0.000    0.0988
   08/03/2005 09:20:00      0.000     0.000    0.0778
   08/03/2005 09:25:00      0.000     0.000    0.0636
   08/03/2005 09:30:00      0.000     0.000    0.0535
   08/03/2005 09:35:00     10.800     3.634    0.0461
   08/03/2005 09:40:00     10.800     3.634    0.0646
   08/03/2005 09:45:00      7.200     2.460    0.0814
   08/03/2005 09:50:00     19.200     6.312    0.0853
   08/03/2005 09:55:00     19.200     6.312    0.1248
   08/03/2005 10:00:00     12.000     4.021    0.1574
   08/03/2005 10:05:00      8.400     2.854    0.1564
   08/03/2005 10:10:00      9.600     3.245    0.1439
   08/03/2005 10:15:00      6.000     2.064    0.1398
   08/03/2005 10:20:00      1.200     0.437    0.1256
   08/03/2005 10:25:00      2.400     0.853    0.1019
   08/03/2005 10:30:00      2.400     0.853    0.0892
   08/03/2005 10:35:00      3.600     1.262    0.0802
   08/03/2005 10:40:00      2.400     0.853    0.0766
   08/03/2005 10:45:00      3.600     1.262    0.0710
   08/03/2005 10:50:00      4.800     1.665    0.0695
   08/03/2005 10:55:00      2.400     0.853    0.0713
   08/03/2005 11:00:00      6.000     2.064    0.0669
   08/03/2005 11:05:00      2.400     0.853    0.0721
   08/03/2005 11:10:00      2.400     0.853    0.0675
   08/03/2005 11:15:00      1.200     0.437    0.0639
   08/03/2005 11:20:00      2.400     0.853    0.0585
   08/03/2005 11:25:00      2.400     0.853    0.0568
  
  
  <<< Subcatchment S12 >>>
  ---------------------------------------------------
  Date        Time        Precip.    Losses    Runoff
                            mm/hr     mm/hr       CMS
  ---------------------------------------------------
   08/03/2005 07:10:00      3.600     1.096    0.0000
   08/03/2005 07:15:00     30.000     8.469    0.0000
   08/03/2005 07:20:00     45.600     9.629    0.0147
   08/03/2005 07:25:00     24.000     5.211    0.0939
   08/03/2005 07:30:00     27.600     5.957    0.1409
   08/03/2005 07:35:00     13.200     2.937    0.1978
   08/03/2005 07:40:00     13.200     2.937    0.2042
   08/03/2005 07:45:00     15.600     3.448    0.2098
   08/03/2005 07:50:00     18.000     3.955    0.2222
   08/03/2005 07:55:00     13.200     2.937    0.2408
   08/03/2005 08:00:00     42.000     8.902    0.2405
   08/03/2005 08:05:00     20.400     4.460    0.3432
   08/03/2005 08:10:00     12.000     2.680    0.3494
   08/03/2005 08:15:00      1.200     0.291    0.3230
   08/03/2005 08:20:00      0.000     0.000    0.2648
   08/03/2005 08:25:00      1.200     0.291    0.2175
   08/03/2005 08:30:00     14.400     3.193    0.1850
   08/03/2005 08:35:00      3.600     0.841    0.1991
   08/03/2005 08:40:00      1.200     0.291    0.1780
   08/03/2005 08:45:00      0.000     0.000    0.1544
   08/03/2005 08:50:00      2.400     0.569    0.1323
   08/03/2005 08:55:00      3.600     0.841    0.1207
   08/03/2005 09:00:00     14.400     3.193    0.1142
   08/03/2005 09:05:00     20.400     4.460    0.1365
   08/03/2005 09:10:00      1.200     0.291    0.1743
   08/03/2005 09:15:00      0.000     0.000    0.1520
   08/03/2005 09:20:00      0.000     0.000    0.1309
   08/03/2005 09:25:00      0.000     0.000    0.1139
   08/03/2005 09:30:00      0.000     0.000    0.1001
   08/03/2005 09:35:00     10.800     2.422    0.0887
   08/03/2005 09:40:00     10.800     2.422    0.1038
   08/03/2005 09:45:00      7.200     1.640    0.1178
   08/03/2005 09:50:00     19.200     4.208    0.1212
   08/03/2005 09:55:00     19.200     4.208    0.1567
   08/03/2005 10:00:00     12.000     2.680    0.1899
   08/03/2005 10:05:00      8.400     1.902    0.1971
   08/03/2005 10:10:00      9.600     2.163    0.1924
   08/03/2005 10:15:00      6.000     1.376    0.1921
   08/03/2005 10:20:00      1.200     0.291    0.1812
   08/03/2005 10:25:00      2.400     0.569    0.1587
   08/03/2005 10:30:00      2.400     0.569    0.1438
   08/03/2005 10:35:00      3.600     0.841    0.1317
   08/03/2005 10:40:00      2.400     0.569    0.1246
   08/03/2005 10:45:00      3.600     0.841    0.1157
   08/03/2005 10:50:00      4.800     1.110    0.1112
   08/03/2005 10:55:00      2.400     0.569    0.1102
   08/03/2005 11:00:00      6.000     1.376    0.1036
   08/03/2005 11:05:00      2.400     0.569    0.1064
   08/03/2005 11:10:00      2.400     0.569    0.1004
   08/03/2005 11:15:00      1.200     0.291    0.0953
   08/03/2005 11:20:00      2.400     0.569    0.0882
   08/03/2005 11:25:00      2.400     0.569    0.0848
  
  
  <<< Subcatchment S13 >>>
  ---------------------------------------------------
  Date        Time        Precip.    Losses    Runoff
                            mm/hr     mm/hr       CMS
  ---------------------------------------------------
   08/03/2005 07:10:00      3.600     1.096    0.0000
   08/03/2005 07:15:00     30.000     8.469    0.0000
   08/03/2005 07:20:00     45.600     9.629    0.0182
   08/03/2005 07:25:00     24.000     5.211    0.1145
   08/03/2005 07:30:00     27.600     5.957    0.1665
   08/03/2005 07:35:00     13.200     2.937    0.2274
   08/03/2005 07:40:00     13.200     2.937    0.2266
   08/03/2005 07:45:00     15.600     3.448    0.2262
   08/03/2005 07:50:00     18.000     3.955    0.2350
   08/03/2005 07:55:00     13.200     2.937    0.2512
   08/03/2005 08:00:00     42.000     8.902    0.2462
   08/03/2005 08:05:00     20.400     4.460    0.3590
   08/03/2005 08:10:00     12.000     2.680    0.3585
   08/03/2005 08:15:00      1.200     0.291    0.3232
   08/03/2005 08:20:00      0.000     0.000    0.2555
   08/03/2005 08:25:00      1.200     0.291    0.2033
   08/03/2005 08:30:00     14.400     3.193    0.1692
   08/03/2005 08:35:00      3.600     0.841    0.1863
   08/03/2005 08:40:00      1.200     0.291    0.1644
   08/03/2005 08:45:00      0.000     0.000    0.1401
   08/03/2005 08:50:00      2.400     0.569    0.1180
   08/03/2005 08:55:00      3.600     0.841    0.1072
   08/03/2005 09:00:00     14.400     3.193    0.1017
   08/03/2005 09:05:00     20.400     4.460    0.1274
   08/03/2005 09:10:00      1.200     0.291    0.1700
   08/03/2005 09:15:00      0.000     0.000    0.1450
   08/03/2005 09:20:00      0.000     0.000    0.1223
   08/03/2005 09:25:00      0.000     0.000    0.1046
   08/03/2005 09:30:00      0.000     0.000    0.0906
   08/03/2005 09:35:00     10.800     2.422    0.0793
   08/03/2005 09:40:00     10.800     2.422    0.0967
   08/03/2005 09:45:00      7.200     1.640    0.1128
   08/03/2005 09:50:00     19.200     4.208    0.1169
   08/03/2005 09:55:00     19.200     4.208    0.1566
   08/03/2005 10:00:00     12.000     2.680    0.1930
   08/03/2005 10:05:00      8.400     1.902    0.1994
   08/03/2005 10:10:00      9.600     2.163    0.1924
   08/03/2005 10:15:00      6.000     1.376    0.1910
   08/03/2005 10:20:00      1.200     0.291    0.1780
   08/03/2005 10:25:00      2.400     0.569    0.1526
   08/03/2005 10:30:00      2.400     0.569    0.1366
   08/03/2005 10:35:00      3.600     0.841    0.1238
   08/03/2005 10:40:00      2.400     0.569    0.1168
   08/03/2005 10:45:00      3.600     0.841    0.1078
   08/03/2005 10:50:00      4.800     1.110    0.1036
   08/03/2005 10:55:00      2.400     0.569    0.1032
   08/03/2005 11:00:00      6.000     1.376    0.0967
   08/03/2005 11:05:00      2.400     0.569    0.1004
   08/03/2005 11:10:00      2.400     0.569    0.0943
   08/03/2005 11:15:00      1.200     0.291    0.0892
   08/03/2005 11:20:00      2.400     0.569    0.0821
   08/03/2005 11:25:00      2.400     0.569    0.0788
  
  
  <<< Subcatchment S14 >>>
  ---------------------------------------------------
  Date        Time        Precip.    Losses    Runoff
                            mm/hr     mm/hr       CMS
  ---------------------------------------------------
   08/03/2005 07:10:00      3.600     1.644    0.0000
   08/03/2005 07:15:00     30.000    12.704    0.0000
   08/03/2005 07:20:00     45.600    14.444    0.0145
   08/03/2005 07:25:00     24.000     7.817    0.0912
   08/03/2005 07:30:00     27.600     8.936    0.1317
   08/03/2005 07:35:00     13.200     4.406    0.1790
   08/03/2005 07:40:00     13.200     4.406    0.1772
   08/03/2005 07:45:00     15.600     5.172    0.1759
   08/03/2005 07:50:00     18.000     5.933    0.1821
   08/03/2005 07:55:00     13.200     4.406    0.1943
   08/03/2005 08:00:00     42.000    13.352    0.1898
   08/03/2005 08:05:00     20.400     6.690    0.2781
   08/03/2005 08:10:00     12.000     4.021    0.2768
   08/03/2005 08:15:00      1.200     0.437    0.2486
   08/03/2005 08:20:00      0.000     0.000    0.1954
   08/03/2005 08:25:00      1.200     0.437    0.1547
   08/03/2005 08:30:00     14.400     4.790    0.1284
   08/03/2005 08:35:00      3.600     1.262    0.1422
   08/03/2005 08:40:00      1.200     0.437    0.1254
   08/03/2005 08:45:00      0.000     0.000    0.1068
   08/03/2005 08:50:00      2.400     0.853    0.0898
   08/03/2005 08:55:00      3.600     1.262    0.0818
   08/03/2005 09:00:00     14.400     4.790    0.0778
   08/03/2005 09:05:00     20.400     6.690    0.0982
   08/03/2005 09:10:00      1.200     0.437    0.1319
   08/03/2005 09:15:00      0.000     0.000    0.1124
   08/03/2005 09:20:00      0.000     0.000    0.0948
   08/03/2005 09:25:00      0.000     0.000    0.0812
   08/03/2005 09:30:00      0.000     0.000    0.0705
   08/03/2005 09:35:00     10.800     3.634    0.0620
   08/03/2005 09:40:00     10.800     3.634    0.0758
   08/03/2005 09:45:00      7.200     2.460    0.0887
   08/03/2005 09:50:00     19.200     6.312    0.0920
   08/03/2005 09:55:00     19.200     6.312    0.1235
   08/03/2005 10:00:00     12.000     4.021    0.1523
   08/03/2005 10:05:00      8.400     2.854    0.1573
   08/03/2005 10:10:00      9.600     3.245    0.1518
   08/03/2005 10:15:00      6.000     2.064    0.1508
   08/03/2005 10:20:00      1.200     0.437    0.1407
   08/03/2005 10:25:00      2.400     0.853    0.1210
   08/03/2005 10:30:00      2.400     0.853    0.1087
   08/03/2005 10:35:00      3.600     1.262    0.0990
   08/03/2005 10:40:00      2.400     0.853    0.0938
   08/03/2005 10:45:00      3.600     1.262    0.0871
   08/03/2005 10:50:00      4.800     1.665    0.0841
   08/03/2005 10:55:00      2.400     0.853    0.0840
   08/03/2005 11:00:00      6.000     2.064    0.0792
   08/03/2005 11:05:00      2.400     0.853    0.0824
   08/03/2005 11:10:00      2.400     0.853    0.0778
   08/03/2005 11:15:00      1.200     0.437    0.0741
   08/03/2005 11:20:00      2.400     0.853    0.0687
   08/03/2005 11:25:00      2.400     0.853    0.0664
  
  
  <<< Subcatchment S15 >>>
  ---------------------------------------------------
  Date        Time        Precip.    Losses    Runoff
                            mm/hr     mm/hr       CMS
  ---------------------------------------------------
   08/03/2005 07:10:00      3.600     1.370    0.0000
   08/03/2005 07:15:00     30.000    10.586    0.0000
   08/03/2005 07:20:00     45.600    12.037    0.0145
   08/03/2005 07:25:00     24.000     6.514    0.0908
   08/03/2005 07:30:00     27.600     7.447    0.1306
   08/03/2005 07:35:00     13.200     3.672    0.1768
   08/03/2005 07:40:00     13.200     3.672    0.1741
   08/03/2005 07:45:00     15.600     4.310    0.1723
   08/03/2005 07:50:00     18.000     4.944    0.1779
   08/03/2005 07:55:00     13.200     3.672    0.1895
   08/03/2005 08:00:00     42.000    11.127    0.1847
   08/03/2005 08:05:00     20.400     5.575    0.2715
   08/03/2005 08:10:00     12.000     3.350    0.2695
   08/03/2005 08:15:00      1.200     0.364    0.2412
   08/03/2005 08:20:00      0.000     0.000    0.1886
   08/03/2005 08:25:00      1.200     0.364    0.1487
   08/03/2005 08:30:00     14.400     3.991    0.1230
   08/03/2005 08:35:00      3.600     1.052    0.1367
   08/03/2005 08:40:00      1.200     0.364    0.1203
   08/03/2005 08:45:00      0.000     0.000    0.1022
   08/03/2005 08:50:00      2.400     0.711    0.0857
   08/03/2005 08:55:00      3.600     1.052    0.0779
   08/03/2005 09:00:00     14.400     3.991    0.0741
   08/03/2005 09:05:00     20.400     5.575    0.0942
   08/03/2005 09:10:00      1.200     0.364    0.1274
   08/03/2005 09:15:00      0.000     0.000    0.1081
   08/03/2005 09:20:00      0.000     0.000    0.0908
   08/03/2005 09:25:00      0.000     0.000    0.0775
   08/03/2005 09:30:00      0.000     0.000    0.0670
   08/03/2005 09:35:00     10.800     3.028    0.0586
   08/03/2005 09:40:00     10.800     3.028    0.0723
   08/03/2005 09:45:00      7.200     2.050    0.0849
   08/03/2005 09:50:00     19.200     5.260    0.0881
   08/03/2005 09:55:00     19.200     5.260    0.1190
   08/03/2005 10:00:00     12.000     3.350    0.1472
   08/03/2005 10:05:00      8.400     2.378    0.1518
   08/03/2005 10:10:00      9.600     2.704    0.1461
   08/03/2005 10:15:00      6.000     1.720    0.1449
   08/03/2005 10:20:00      1.200     0.364    0.1347
   08/03/2005 10:25:00      2.400     0.711    0.1152
   08/03/2005 10:30:00      2.400     0.711    0.1030
   08/03/2005 10:35:00      3.600     1.052    0.0935
   08/03/2005 10:40:00      2.400     0.711    0.0884
   08/03/2005 10:45:00      3.600     1.052    0.0818
   08/03/2005 10:50:00      4.800     1.388    0.0788
   08/03/2005 10:55:00      2.400     0.711    0.0788
   08/03/2005 11:00:00      6.000     1.720    0.0739
   08/03/2005 11:05:00      2.400     0.711    0.0770
   08/03/2005 11:10:00      2.400     0.711    0.0725
   08/03/2005 11:15:00      1.200     0.364    0.0688
   08/03/2005 11:20:00      2.400     0.711    0.0635
   08/03/2005 11:25:00      2.400     0.711    0.0612
  
  
  ************
  Node Results
  ************
  
  <<< Node J0 >>>
  ----------------------------------------------------------------
                           Inflow  Flooding     Depth      Head
  Date        Time            CMS       CMS    meters    meters
  ----------------------------------------------------------------
   08/03/2005 07:10:00      0.000     0.000     0.011    31.001
   08/03/2005 07:15:00      0.000     0.000     0.007    30.997
   08/03/2005 07:20:00      0.014     0.000     0.040    31.030
   08/03/2005 07:25:00      0.088     0.000     0.104    31.094
   08/03/2005 07:30:00      0.121     0.000     0.126    31.116
   08/03/2005 07:35:00      0.161     0.000     0.145    31.135
   08/03/2005 07:40:00      0.156     0.000     0.145    31.135
   08/03/2005 07:45:00      0.151     0.000     0.142    31.132
   08/03/2005 07:50:00      0.153     0.000     0.143    31.133
   08/03/2005 07:55:00      0.161     0.000     0.146    31.136
   08/03/2005 08:00:00      0.156     0.000     0.144    31.134
   08/03/2005 08:05:00      0.233     0.000     0.174    31.164
   08/03/2005 08:10:00      0.229     0.000     0.175    31.165
   08/03/2005 08:15:00      0.202     0.000     0.165    31.155
   08/03/2005 08:20:00      0.155     0.000     0.145    31.135
   08/03/2005 08:25:00      0.118     0.000     0.128    31.118
   08/03/2005 08:30:00      0.097     0.000     0.115    31.105
   08/03/2005 08:35:00      0.108     0.000     0.120    31.110
   08/03/2005 08:40:00      0.096     0.000     0.114    31.104
   08/03/2005 08:45:00      0.081     0.000     0.105    31.095
   08/03/2005 08:50:00      0.067     0.000     0.096    31.086
   08/03/2005 08:55:00      0.061     0.000     0.091    31.081
   08/03/2005 09:00:00      0.058     0.000     0.089    31.079
   08/03/2005 09:05:00      0.075     0.000     0.100    31.090
   08/03/2005 09:10:00      0.105     0.000     0.118    31.108
   08/03/2005 09:15:00      0.090     0.000     0.111    31.101
   08/03/2005 09:20:00      0.075     0.000     0.102    31.092
   08/03/2005 09:25:00      0.063     0.000     0.093    31.083
   08/03/2005 09:30:00      0.054     0.000     0.086    31.076
   08/03/2005 09:35:00      0.047     0.000     0.081    31.071
   08/03/2005 09:40:00      0.058     0.000     0.088    31.078
   08/03/2005 09:45:00      0.070     0.000     0.097    31.087
   08/03/2005 09:50:00      0.073     0.000     0.100    31.090
   08/03/2005 09:55:00      0.100     0.000     0.115    31.105
   08/03/2005 10:00:00      0.125     0.000     0.129    31.119
   08/03/2005 10:05:00      0.130     0.000     0.132    31.122
   08/03/2005 10:10:00      0.124     0.000     0.129    31.119
   08/03/2005 10:15:00      0.122     0.000     0.128    31.118
   08/03/2005 10:20:00      0.113     0.000     0.124    31.114
   08/03/2005 10:25:00      0.095     0.000     0.114    31.104
   08/03/2005 10:30:00      0.085     0.000     0.107    31.097
   08/03/2005 10:35:00      0.076     0.000     0.102    31.092
   08/03/2005 10:40:00      0.072     0.000     0.099    31.089
   08/03/2005 10:45:00      0.066     0.000     0.096    31.086
   08/03/2005 10:50:00      0.064     0.000     0.094    31.084
   08/03/2005 10:55:00      0.064     0.000     0.093    31.083
   08/03/2005 11:00:00      0.060     0.000     0.091    31.081
   08/03/2005 11:05:00      0.063     0.000     0.092    31.082
   08/03/2005 11:10:00      0.060     0.000     0.091    31.081
   08/03/2005 11:15:00      0.056     0.000     0.088    31.078
   08/03/2005 11:20:00      0.052     0.000     0.085    31.075
   08/03/2005 11:25:00      0.050     0.000     0.083    31.073
  
  
  <<< Node J1 >>>
  ----------------------------------------------------------------
                           Inflow  Flooding     Depth      Head
  Date        Time            CMS       CMS    meters    meters
  ----------------------------------------------------------------
   08/03/2005 07:10:00      0.000     0.000     0.000    28.990
   08/03/2005 07:15:00      0.000     0.000     0.002    28.992
   08/03/2005 07:20:00      0.014     0.000     0.044    29.034
   08/03/2005 07:25:00      0.077     0.000     0.108    29.098
   08/03/2005 07:30:00      0.092     0.000     0.121    29.111
   08/03/2005 07:35:00      0.110     0.000     0.132    29.122
   08/03/2005 07:40:00      0.093     0.000     0.123    29.113
   08/03/2005 07:45:00      0.083     0.000     0.116    29.106
   08/03/2005 07:50:00      0.081     0.000     0.114    29.104
   08/03/2005 07:55:00      0.085     0.000     0.117    29.107
   08/03/2005 08:00:00      0.079     0.000     0.113    29.103
   08/03/2005 08:05:00      0.133     0.000     0.144    29.134
   08/03/2005 08:10:00      0.123     0.000     0.141    29.131
   08/03/2005 08:15:00      0.100     0.000     0.128    29.118
   08/03/2005 08:20:00      0.067     0.000     0.106    29.096
   08/03/2005 08:25:00      0.046     0.000     0.088    29.078
   08/03/2005 08:30:00      0.036     0.000     0.078    29.068
   08/03/2005 08:35:00      0.046     0.000     0.086    29.076
   08/03/2005 08:40:00      0.040     0.000     0.082    29.072
   08/03/2005 08:45:00      0.032     0.000     0.073    29.063
   08/03/2005 08:50:00      0.024     0.000     0.064    29.054
   08/03/2005 08:55:00      0.022     0.000     0.061    29.051
   08/03/2005 09:00:00      0.021     0.000     0.060    29.050
   08/03/2005 09:05:00      0.034     0.000     0.074    29.064
   08/03/2005 09:10:00      0.056     0.000     0.094    29.084
   08/03/2005 09:15:00      0.043     0.000     0.085    29.075
   08/03/2005 09:20:00      0.032     0.000     0.074    29.064
   08/03/2005 09:25:00      0.024     0.000     0.064    29.054
   08/03/2005 09:30:00      0.019     0.000     0.057    29.047
   08/03/2005 09:35:00      0.015     0.000     0.052    29.042
   08/03/2005 09:40:00      0.024     0.000     0.062    29.052
   08/03/2005 09:45:00      0.032     0.000     0.073    29.063
   08/03/2005 09:50:00      0.034     0.000     0.075    29.065
   08/03/2005 09:55:00      0.053     0.000     0.092    29.082
   08/03/2005 10:00:00      0.069     0.000     0.105    29.095
   08/03/2005 10:05:00      0.068     0.000     0.105    29.095
   08/03/2005 10:10:00      0.061     0.000     0.100    29.090
   08/03/2005 10:15:00      0.058     0.000     0.097    29.087
   08/03/2005 10:20:00      0.050     0.000     0.091    29.081
   08/03/2005 10:25:00      0.038     0.000     0.080    29.070
   08/03/2005 10:30:00      0.032     0.000     0.073    29.063
   08/03/2005 10:35:00      0.027     0.000     0.068    29.058
   08/03/2005 10:40:00      0.026     0.000     0.066    29.056
   08/03/2005 10:45:00      0.023     0.000     0.062    29.052
   08/03/2005 10:50:00      0.022     0.000     0.061    29.051
   08/03/2005 10:55:00      0.023     0.000     0.062    29.052
   08/03/2005 11:00:00      0.021     0.000     0.060    29.050
   08/03/2005 11:05:00      0.023     0.000     0.063    29.053
   08/03/2005 11:10:00      0.022     0.000     0.061    29.051
   08/03/2005 11:15:00      0.020     0.000     0.058    29.048
[...]
   08/03/2005 09:15:00      0.211     1.342     0.168     0.022
   08/03/2005 09:20:00      0.178     1.211     0.160     0.021
   08/03/2005 09:25:00      0.147     1.119     0.148     0.019
   08/03/2005 09:30:00      0.124     1.062     0.137     0.017
   08/03/2005 09:35:00      0.107     1.023     0.128     0.015
   08/03/2005 09:40:00      0.103     1.030     0.124     0.014
   08/03/2005 09:45:00      0.126     1.135     0.133     0.016
   08/03/2005 09:50:00      0.149     1.199     0.143     0.018
   08/03/2005 09:55:00      0.175     1.263     0.154     0.020
   08/03/2005 10:00:00      0.234     1.418     0.174     0.023
   08/03/2005 10:05:00      0.272     1.457     0.189     0.026
   08/03/2005 10:10:00      0.269     1.418     0.191     0.027
   08/03/2005 10:15:00      0.256     1.385     0.188     0.026
   08/03/2005 10:20:00      0.245     1.365     0.184     0.025
   08/03/2005 10:25:00      0.220     1.308     0.176     0.024
   08/03/2005 10:30:00      0.189     1.229     0.165     0.022
   08/03/2005 10:35:00      0.169     1.185     0.157     0.020
   08/03/2005 10:40:00      0.156     1.158     0.151     0.019
   08/03/2005 10:45:00      0.148     1.145     0.147     0.018
   08/03/2005 10:50:00      0.140     1.129     0.143     0.018
   08/03/2005 10:55:00      0.138     1.132     0.141     0.017
   08/03/2005 11:00:00      0.137     1.135     0.140     0.017
   08/03/2005 11:05:00      0.134     1.129     0.138     0.017
   08/03/2005 11:10:00      0.136     1.142     0.139     0.017
   08/03/2005 11:15:00      0.130     1.121     0.137     0.016
   08/03/2005 11:20:00      0.123     1.101     0.133     0.016
   08/03/2005 11:25:00      0.116     1.082     0.129     0.015
  
  
  <<< Link C20 >>>
  ----------------------------------------------------------------
                             Flow  Velocity     Depth  Capacity/
  Date        Time            CMS     m/sec    meters   Setting 
  ----------------------------------------------------------------
   08/03/2005 07:10:00      0.000     0.000     0.000     0.000
   08/03/2005 07:15:00      0.000     0.000     0.001     0.000
   08/03/2005 07:20:00      0.001     0.355     0.011     0.001
   08/03/2005 07:25:00      0.023     0.690     0.059     0.005
   08/03/2005 07:30:00      0.179     1.288     0.154     0.020
   08/03/2005 07:35:00      0.378     1.608     0.221     0.033
   08/03/2005 07:40:00      0.485     1.724     0.250     0.040
   08/03/2005 07:45:00      0.483     1.700     0.251     0.040
   08/03/2005 07:50:00      0.467     1.673     0.249     0.039
   08/03/2005 07:55:00      0.473     1.676     0.250     0.040
   08/03/2005 08:00:00      0.488     1.693     0.254     0.041
   08/03/2005 08:05:00      0.538     1.730     0.267     0.044
   08/03/2005 08:10:00      0.692     1.896     0.298     0.052
   08/03/2005 08:15:00      0.697     1.893     0.300     0.052
   08/03/2005 08:20:00      0.608     1.806     0.282     0.048
   08/03/2005 08:25:00      0.483     1.677     0.254     0.041
   08/03/2005 08:30:00      0.384     1.559     0.228     0.035
   08/03/2005 08:35:00      0.329     1.478     0.213     0.032
   08/03/2005 08:40:00      0.329     1.490     0.212     0.031
   08/03/2005 08:45:00      0.306     1.461     0.204     0.030
   08/03/2005 08:50:00      0.266     1.399     0.191     0.027
   08/03/2005 08:55:00      0.230     1.342     0.179     0.024
   08/03/2005 09:00:00      0.206     1.290     0.170     0.023
   08/03/2005 09:05:00      0.202     1.280     0.169     0.022
   08/03/2005 09:10:00      0.244     1.364     0.184     0.025
   08/03/2005 09:15:00      0.311     1.491     0.203     0.029
   08/03/2005 09:20:00      0.297     1.465     0.200     0.029
   08/03/2005 09:25:00      0.254     1.390     0.186     0.026
   08/03/2005 09:30:00      0.217     1.324     0.173     0.023
   08/03/2005 09:35:00      0.187     1.259     0.161     0.021
   08/03/2005 09:40:00      0.171     1.219     0.155     0.020
   08/03/2005 09:45:00      0.186     1.259     0.161     0.021
   08/03/2005 09:50:00      0.218     1.335     0.172     0.023
   08/03/2005 09:55:00      0.251     1.389     0.185     0.026
   08/03/2005 10:00:00      0.324     1.509     0.208     0.030
   08/03/2005 10:05:00      0.398     1.614     0.228     0.035
   08/03/2005 10:10:00      0.418     1.634     0.234     0.036
   08/03/2005 10:15:00      0.408     1.615     0.232     0.036
   08/03/2005 10:20:00      0.394     1.596     0.229     0.035
   08/03/2005 10:25:00      0.364     1.557     0.220     0.033
   08/03/2005 10:30:00      0.320     1.492     0.207     0.030
   08/03/2005 10:35:00      0.283     1.437     0.196     0.028
   08/03/2005 10:40:00      0.257     1.398     0.187     0.026
   08/03/2005 10:45:00      0.241     1.377     0.182     0.025
   08/03/2005 10:50:00      0.228     1.352     0.177     0.024
   08/03/2005 10:55:00      0.219     1.335     0.173     0.023
   08/03/2005 11:00:00      0.216     1.331     0.172     0.023
   08/03/2005 11:05:00      0.211     1.322     0.170     0.023
   08/03/2005 11:10:00      0.211     1.326     0.170     0.023
   08/03/2005 11:15:00      0.206     1.316     0.167     0.022
   08/03/2005 11:20:00      0.196     1.297     0.164     0.021
   08/03/2005 11:25:00      0.185     1.272     0.159     0.021
  
  
  <<< Link C21 >>>
  ----------------------------------------------------------------
                             Flow  Velocity     Depth  Capacity/
  Date        Time            CMS     m/sec    meters   Setting 
  ----------------------------------------------------------------
   08/03/2005 07:10:00      0.000     0.000     0.000     0.000
   08/03/2005 07:15:00      0.000     0.000     0.003     0.000
   08/03/2005 07:20:00      0.009     1.450     0.029     0.008
   08/03/2005 07:25:00      0.077     2.296     0.087     0.043
   08/03/2005 07:30:00      0.123     1.754     0.144     0.089
   08/03/2005 07:35:00      0.169     1.682     0.185     0.128
   08/03/2005 07:40:00      0.175     1.582     0.198     0.140
   08/03/2005 07:45:00      0.173     1.574     0.197     0.140
   08/03/2005 07:50:00      0.177     1.623     0.196     0.139
   08/03/2005 07:55:00      0.187     1.683     0.199     0.142
   08/03/2005 08:00:00      0.186     1.653     0.201     0.143
   08/03/2005 08:05:00      0.258     1.999     0.221     0.165
   08/03/2005 08:10:00      0.270     1.877     0.239     0.183
   08/03/2005 08:15:00      0.246     1.754     0.234     0.178
   08/03/2005 08:20:00      0.197     1.588     0.215     0.158
   08/03/2005 08:25:00      0.156     1.467     0.193     0.135
   08/03/2005 08:30:00      0.128     1.401     0.174     0.116
   08/03/2005 08:35:00      0.134     1.534     0.168     0.111
   08/03/2005 08:40:00      0.124     1.450     0.165     0.109
   08/03/2005 08:45:00      0.106     1.338     0.157     0.101
   08/03/2005 08:50:00      0.089     1.250     0.146     0.091
   08/03/2005 08:55:00      0.080     1.223     0.137     0.083
   08/03/2005 09:00:00      0.075     1.224     0.132     0.078
   08/03/2005 09:05:00      0.090     1.401     0.136     0.082
   08/03/2005 09:10:00      0.121     1.591     0.153     0.097
   08/03/2005 09:15:00      0.112     1.380     0.160     0.103
   08/03/2005 09:20:00      0.094     1.245     0.153     0.097
   08/03/2005 09:25:00      0.080     1.181     0.142     0.087
   08/03/2005 09:30:00      0.069     1.133     0.132     0.078
   08/03/2005 09:35:00      0.061     1.094     0.123     0.070
   08/03/2005 09:40:00      0.069     1.246     0.123     0.071
   08/03/2005 09:45:00      0.082     1.356     0.131     0.077
   08/03/2005 09:50:00      0.087     1.333     0.138     0.084
   08/03/2005 09:55:00      0.113     1.499     0.152     0.096
   08/03/2005 10:00:00      0.142     1.596     0.170     0.113
   08/03/2005 10:05:00      0.151     1.544     0.182     0.124
   08/03/2005 10:10:00      0.147     1.487     0.184     0.126
   08/03/2005 10:15:00      0.145     1.488     0.182     0.124
   08/03/2005 10:20:00      0.137     1.447     0.178     0.120
   08/03/2005 10:25:00      0.119     1.353     0.169     0.112
   08/03/2005 10:30:00      0.106     1.310     0.159     0.103
   08/03/2005 10:35:00      0.095     1.278     0.151     0.095
   08/03/2005 10:40:00      0.090     1.267     0.145     0.090
   08/03/2005 10:45:00      0.083     1.235     0.141     0.086
   08/03/2005 10:50:00      0.079     1.223     0.137     0.083
   08/03/2005 10:55:00      0.079     1.234     0.136     0.081
   08/03/2005 11:00:00      0.075     1.199     0.134     0.080
   08/03/2005 11:05:00      0.076     1.225     0.133     0.079
   08/03/2005 11:10:00      0.074     1.193     0.132     0.079
   08/03/2005 11:15:00      0.070     1.159     0.130     0.077
   08/03/2005 11:20:00      0.065     1.122     0.126     0.073
   08/03/2005 11:25:00      0.062     1.112     0.123     0.071
  
  
  <<< Link C23 >>>
  ----------------------------------------------------------------
                             Flow  Velocity     Depth  Capacity/
  Date        Time            CMS     m/sec    meters   Setting 
  ----------------------------------------------------------------
   08/03/2005 07:10:00      0.068     1.002     0.090     0.007
   08/03/2005 07:15:00      0.059     1.002     0.082     0.006
   08/03/2005 07:20:00      0.045     0.986     0.070     0.004
   08/03/2005 07:25:00      0.053     0.992     0.077     0.005
   08/03/2005 07:30:00      0.286     1.237     0.205     0.023
   08/03/2005 07:35:00      1.143     1.907     0.391     0.059
   08/03/2005 07:40:00      1.928     2.279     0.496     0.083
   08/03/2005 07:45:00      2.152     2.385     0.518     0.089
   08/03/2005 07:50:00      2.108     2.373     0.513     0.087
   08/03/2005 07:55:00      2.108     2.369     0.513     0.087
   08/03/2005 08:00:00      2.184     2.393     0.522     0.090
   08/03/2005 08:05:00      2.288     2.415     0.536     0.093
   08/03/2005 08:10:00      2.882     2.572     0.602     0.110
   08/03/2005 08:15:00      3.194     2.679     0.628     0.117
   08/03/2005 08:20:00      2.922     2.611     0.601     0.110
   08/03/2005 08:25:00      2.424     2.468     0.549     0.096
   08/03/2005 08:30:00      1.946     2.313     0.494     0.083
   08/03/2005 08:35:00      1.629     2.195     0.453     0.073
   08/03/2005 08:40:00      1.544     2.164     0.441     0.070
   08/03/2005 08:45:00      1.476     2.133     0.432     0.068
   08/03/2005 08:50:00      1.324     2.060     0.410     0.063
   08/03/2005 08:55:00      1.149     1.974     0.383     0.057
   08/03/2005 09:00:00      1.018     1.919     0.360     0.052
   08/03/2005 09:05:00      0.947     1.873     0.348     0.050
   08/03/2005 09:10:00      1.024     1.903     0.363     0.053
   08/03/2005 09:15:00      1.284     2.022     0.407     0.062
   08/03/2005 09:20:00      1.382     2.090     0.418     0.065
   08/03/2005 09:25:00      1.240     2.015     0.398     0.060
   08/03/2005 09:30:00      1.067     1.936     0.369     0.054
   08/03/2005 09:35:00      0.923     1.859     0.344     0.049
   08/03/2005 09:40:00      0.817     1.791     0.324     0.045
   08/03/2005 09:45:00      0.811     1.778     0.324     0.045
   08/03/2005 09:50:00      0.913     1.841     0.343     0.049
   08/03/2005 09:55:00      1.041     1.914     0.366     0.053
   08/03/2005 10:00:00      1.275     2.014     0.406     0.062
   08/03/2005 10:05:00      1.622     2.174     0.454     0.073
   08/03/2005 10:10:00      1.827     2.261     0.480     0.079
   08/03/2005 10:15:00      1.831     2.267     0.480     0.079
   08/03/2005 10:20:00      1.782     2.250     0.473     0.078
   08/03/2005 10:25:00      1.684     2.215     0.460     0.075
   08/03/2005 10:30:00      1.511     2.148     0.437     0.069
   08/03/2005 10:35:00      1.340     2.068     0.412     0.064
   08/03/2005 10:40:00      1.207     1.999     0.393     0.059
   08/03/2005 10:45:00      1.114     1.959     0.377     0.056
   08/03/2005 10:50:00      1.043     1.930     0.365     0.053
   08/03/2005 10:55:00      0.990     1.900     0.356     0.051
   08/03/2005 11:00:00      0.963     1.882     0.351     0.050
   08/03/2005 11:05:00      0.938     1.867     0.347     0.049
   08/03/2005 11:10:00      0.928     1.860     0.345     0.049
   08/03/2005 11:15:00      0.914     1.852     0.342     0.048
   08/03/2005 11:20:00      0.879     1.831     0.336     0.047
   08/03/2005 11:25:00      0.831     1.799     0.327     0.045
  
  
  <<< Link C24 >>>
  ----------------------------------------------------------------
                             Flow  Velocity     Depth  Capacity/
  Date        Time            CMS     m/sec    meters   Setting 
  ----------------------------------------------------------------
   08/03/2005 07:10:00      0.000     0.000     0.000     0.000
   08/03/2005 07:15:00      0.000     0.000     0.003     0.000
   08/03/2005 07:20:00      0.007     0.825     0.032     0.008
   08/03/2005 07:25:00      0.067     1.380     0.109     0.051
   08/03/2005 07:30:00      0.122     1.429     0.159     0.090
   08/03/2005 07:35:00      0.167     1.596     0.184     0.110
   08/03/2005 07:40:00      0.178     1.630     0.189     0.115
   08/03/2005 07:45:00      0.176     1.657     0.186     0.112
   08/03/2005 07:50:00      0.180     1.694     0.186     0.112
   08/03/2005 07:55:00      0.191     1.735     0.191     0.116
   08/03/2005 08:00:00      0.191     1.729     0.191     0.116
   08/03/2005 08:05:00      0.259     1.926     0.219     0.142
   08/03/2005 08:10:00      0.277     1.919     0.230     0.152
   08/03/2005 08:15:00      0.254     1.876     0.220     0.143
   08/03/2005 08:20:00      0.207     1.765     0.199     0.124
   08/03/2005 08:25:00      0.164     1.662     0.177     0.104
   08/03/2005 08:30:00      0.135     1.578     0.160     0.090
   08/03/2005 08:35:00      0.138     1.613     0.160     0.090
   08/03/2005 08:40:00      0.130     1.554     0.158     0.088
   08/03/2005 08:45:00      0.112     1.472     0.147     0.080
   08/03/2005 08:50:00      0.095     1.395     0.136     0.071
   08/03/2005 08:55:00      0.084     1.352     0.128     0.065
   08/03/2005 09:00:00      0.079     1.329     0.124     0.063
   08/03/2005 09:05:00      0.092     1.412     0.133     0.069
   08/03/2005 09:10:00      0.123     1.529     0.153     0.085
   08/03/2005 09:15:00      0.118     1.458     0.154     0.085
   08/03/2005 09:20:00      0.100     1.381     0.142     0.076
   08/03/2005 09:25:00      0.085     1.325     0.131     0.068
   08/03/2005 09:30:00      0.074     1.271     0.122     0.061
   08/03/2005 09:35:00      0.065     1.224     0.115     0.055
   08/03/2005 09:40:00      0.071     1.289     0.118     0.058
   08/03/2005 09:45:00      0.085     1.354     0.129     0.066
   08/03/2005 09:50:00      0.091     1.358     0.135     0.071
   08/03/2005 09:55:00      0.115     1.471     0.150     0.082
   08/03/2005 10:00:00      0.145     1.567     0.169     0.097
   08/03/2005 10:05:00      0.156     1.586     0.176     0.104
   08/03/2005 10:10:00      0.153     1.578     0.175     0.102
   08/03/2005 10:15:00      0.151     1.582     0.172     0.100
   08/03/2005 10:20:00      0.143     1.558     0.168     0.097
   08/03/2005 10:25:00      0.126     1.497     0.158     0.089
   08/03/2005 10:30:00      0.112     1.450     0.149     0.081
   08/03/2005 10:35:00      0.102     1.408     0.142     0.076
   08/03/2005 10:40:00      0.095     1.382     0.138     0.073
   08/03/2005 10:45:00      0.089     1.350     0.134     0.069
   08/03/2005 10:50:00      0.085     1.331     0.131     0.067
   08/03/2005 10:55:00      0.084     1.327     0.130     0.067
   08/03/2005 11:00:00      0.081     1.302     0.128     0.065
   08/03/2005 11:05:00      0.081     1.309     0.128     0.065
   08/03/2005 11:10:00      0.079     1.290     0.127     0.065
   08/03/2005 11:15:00      0.075     1.266     0.124     0.063
   08/03/2005 11:20:00      0.070     1.237     0.121     0.060
   08/03/2005 11:25:00      0.067     1.222     0.118     0.058
  
  
  <<< Link C22 >>>
  ----------------------------------------------------------------
                             Flow  Velocity     Depth  Capacity/
  Date        Time            CMS     m/sec    meters   Setting 
  ----------------------------------------------------------------
   08/03/2005 07:10:00      0.000     0.000     0.036     0.007
   08/03/2005 07:15:00      0.000     0.002     0.029     0.005
   08/03/2005 07:20:00      0.004     0.352     0.040     0.008
   08/03/2005 07:25:00      0.059     1.451     0.089     0.027
   08/03/2005 07:30:00      0.124     1.534     0.141     0.053
   08/03/2005 07:35:00      0.169     1.464     0.180     0.075
   08/03/2005 07:40:00      0.183     1.406     0.195     0.085
   08/03/2005 07:45:00      0.183     1.402     0.196     0.085
   08/03/2005 07:50:00      0.188     1.450     0.195     0.084
   08/03/2005 07:55:00      0.200     1.506     0.198     0.086
   08/03/2005 08:00:00      0.201     1.497     0.199     0.087
   08/03/2005 08:05:00      0.269     1.750     0.219     0.100
   08/03/2005 08:10:00      0.291     1.695     0.236     0.112
   08/03/2005 08:15:00      0.270     1.603     0.233     0.109
   08/03/2005 08:20:00      0.223     1.482     0.215     0.098
   08/03/2005 08:25:00      0.178     1.390     0.193     0.083
   08/03/2005 08:30:00      0.147     1.334     0.174     0.072
   08/03/2005 08:35:00      0.149     1.418     0.168     0.068
   08/03/2005 08:40:00      0.140     1.373     0.165     0.066
   08/03/2005 08:45:00      0.122     1.277     0.157     0.062
   08/03/2005 08:50:00      0.104     1.208     0.146     0.056
   08/03/2005 08:55:00      0.092     1.182     0.137     0.051
   08/03/2005 09:00:00      0.086     1.179     0.131     0.047
   08/03/2005 09:05:00      0.099     1.298     0.135     0.049
   08/03/2005 09:10:00      0.130     1.454     0.150     0.058
   08/03/2005 09:15:00      0.126     1.318     0.158     0.062
   08/03/2005 09:20:00      0.108     1.192     0.152     0.059
   08/03/2005 09:25:00      0.093     1.140     0.141     0.053
   08/03/2005 09:30:00      0.080     1.101     0.131     0.047
   08/03/2005 09:35:00      0.071     1.069     0.123     0.043
   08/03/2005 09:40:00      0.077     1.167     0.122     0.043
   08/03/2005 09:45:00      0.091     1.266     0.129     0.047
   08/03/2005 09:50:00      0.097     1.262     0.136     0.050
   08/03/2005 09:55:00      0.121     1.374     0.149     0.057
   08/03/2005 10:00:00      0.152     1.464     0.167     0.067
   08/03/2005 10:05:00      0.165     1.428     0.179     0.075
   08/03/2005 10:10:00      0.163     1.385     0.182     0.076
   08/03/2005 10:15:00      0.161     1.385     0.180     0.075
   08/03/2005 10:20:00      0.153     1.361     0.176     0.073
   08/03/2005 10:25:00      0.136     1.297     0.168     0.068
   08/03/2005 10:30:00      0.121     1.254     0.159     0.063
   08/03/2005 10:35:00      0.110     1.236     0.151     0.058
   08/03/2005 10:40:00      0.104     1.232     0.145     0.055
   08/03/2005 10:45:00      0.097     1.215     0.140     0.052
   08/03/2005 10:50:00      0.093     1.203     0.136     0.050
   08/03/2005 10:55:00      0.092     1.211     0.134     0.049
   08/03/2005 11:00:00      0.088     1.189     0.133     0.048
   08/03/2005 11:05:00      0.089     1.202     0.132     0.048
   08/03/2005 11:10:00      0.087     1.185     0.131     0.048
   08/03/2005 11:15:00      0.083     1.156     0.129     0.046
   08/03/2005 11:20:00      0.078     1.127     0.126     0.045
   08/03/2005 11:25:00      0.074     1.117     0.123     0.043
  

  Analysis begun on:  Wed Mar 27 21:27:24 2019
  Analysis ended on:  Wed Mar 27 21:27:24 2019
  Total elapsed time: < 1 sec