
  EPA STORM WATER MANAGEMENT MODEL - VERSION 5.1 (Build 5.1.012)
  --------------------------------------------------------------

  
  *************
  Element Count
  *************
  Number of rain gages ...... 1
  Number of subcatchments ... 15
  Number of nodes ........... 25
  Number of links ........... 24
  Number of pollutants ...... 0
  Number of land uses ....... 0
  
  
  ****************
  Raingage Summary
  ****************
                                                      Data       Recording
  Name                 Data Source                    Type       Interval 
  ------------------------------------------------------------------------
  1                    20050803                       VOLUME       5 min.
  
  
  ********************
  Subcatchment Summary
  ********************
  Name                       Area     Width   %Imperv    %Slope Rain Gage            Outlet              
  -----------------------------------------------------------------------------------------------------------
  S1                         2.21    400.00     80.00    0.0500 1                    J1                  
  S2                         7.25    400.00     50.00    0.0500 1                    J0                  
  S3                         1.53    400.00     30.00    0.0500 1                    J4                  
  S4                         6.18    400.00     20.00    0.0500 1                    J8                  
  S5                         9.28    400.00     20.00    0.0500 1                    J7                  
  S6                         6.98    400.00     60.00    0.0500 1                    J5                  
  S7                         3.28    400.00     40.00    0.0500 1                    J25                 
  S8                        10.68    400.00     70.00    0.0500 1                    J11                 
  S9                        16.43    400.00     30.00    0.0500 1                    J14                 
  S10                        2.73    400.00     40.00    0.0500 1                    J9                  
  S11                        9.27    700.00     40.00    0.0500 1                    J10                 
  S12                       10.58    400.00     60.00    0.0500 1                    J17                 
  S13                       10.08    500.00     60.00    0.0500 1                    J24                 
  S14                       11.53    400.00     40.00    0.0500 1                    J15                 
  S15                        8.92    400.00     50.00    0.0500 1                    J23                 
  
  
  ************
  Node Summary
  ************
                                           Invert      Max.    Ponded    External
  Name                 Type                 Elev.     Depth      Area    Inflow  
  -------------------------------------------------------------------------------
  J0                   JUNCTION             30.99      4.00       0.0
  J1                   JUNCTION             28.99      4.00       0.0
  J2                   JUNCTION             25.99      4.00       0.0
  J3                   JUNCTION             30.99      4.00       0.0
  J4                   JUNCTION             33.99      4.00       0.0
  J5                   JUNCTION             28.99      4.00       0.0
  J6                   JUNCTION             23.79      4.00       0.0
  J7                   JUNCTION             28.39      4.00       0.0
  J8                   JUNCTION             29.99      4.00       0.0
  J9                   JUNCTION             28.69      4.00       0.0
  J10                  JUNCTION             25.99      4.00       0.0
  J11                  JUNCTION             25.69      4.00       0.0
  J12                  JUNCTION             22.79      4.00       0.0
  J13                  JUNCTION             25.29      4.00       0.0
  J14                  JUNCTION             24.59      4.00       0.0
  J15                  JUNCTION             24.19      4.00       0.0
  J16                  JUNCTION             23.39      4.00       0.0
  J17                  JUNCTION             22.09      4.00       0.0
  J18                  JUNCTION             16.00      4.00       0.0
  J20                  JUNCTION             17.70      4.00       0.0
  J21                  JUNCTION             19.00      4.00       0.0
  J23                  JUNCTION             22.29      4.00       0.0
  J24                  JUNCTION             20.89      4.00       0.0
  J25                  JUNCTION             30.19      4.00       0.0
  J19                  OUTFALL              15.50      3.60       0.0
  
  
  ************
  Link Summary
  ************
  Name             From Node        To Node          Type            Length    %Slope Roughness
  ---------------------------------------------------------------------------------------------
  C0               J0               J2               CONDUIT          214.0    2.3371    0.0110
  C1               J1               J2               CONDUIT          152.0    1.9741    0.0110
  C2               J3               J2               CONDUIT          306.0    1.6342    0.0110
  C3               J4               J3               CONDUIT          128.0    2.3444    0.0110
  C4               J2               J6               CONDUIT          293.0    0.7509    0.0110
  C5               J5               J6               CONDUIT          246.0    2.1143    0.0110
  C6               J25              J11              CONDUIT          289.0    1.5573    0.0110
  C7               J6               J12              CONDUIT          335.0    0.2985    0.0110
  C8               J7               J6               CONDUIT          187.0    2.4606    0.0110
  C9               J8               J9               CONDUIT          119.0    1.0925    0.0110
  C10              J9               J16              CONDUIT          325.0    1.6310    0.0110
  C11              J10              J11              CONDUIT          227.0    0.1322    0.0110
  C12              J12              J18              CONDUIT          401.0    1.6935    0.0110
  C13              J17              J18              CONDUIT          267.0    2.2815    0.0110
  C14              J11              J13              CONDUIT          113.0    0.3540    0.0110
  C16              J13              J17              CONDUIT          409.0    0.7824    0.0110
  C17              J24              J20              CONDUIT          329.0    0.9697    0.0110
  C18              J20              J18              CONDUIT          215.0    0.7907    0.0110
  C19              J16              J21              CONDUIT          437.0    1.0046    0.0110
  C20              J21              J20              CONDUIT          295.0    0.4407    0.0110
  C21              J23              J21              CONDUIT          204.0    1.6130    0.0110
  C23              J18              J19              CONDUIT          161.0    0.3106    0.0110
  C24              J15              J16              CONDUIT          197.0    0.4061    0.0110
  C22              J14              J12              CONDUIT          280.0    0.6429    0.0110
  
  
  *********************
  Cross Section Summary
  *********************
                                        Full     Full     Hyd.     Max.   No. of     Full
  Conduit          Shape               Depth     Area     Rad.    Width  Barrels     Flow
  ---------------------------------------------------------------------------------------
  C0               CIRCULAR             0.70     0.38     0.17     0.70        1     1.67
  C1               CIRCULAR             0.60     0.28     0.15     0.60        1     1.02
  C2               CIRCULAR             0.80     0.50     0.20     0.80        1     2.00
  C3               CIRCULAR             0.60     0.28     0.15     0.60        1     1.11
  C4               CIRCULAR             1.20     1.13     0.30     1.20        1     3.99
  C5               CIRCULAR             0.70     0.38     0.17     0.70        1     1.59
  C6               CIRCULAR             0.80     0.50     0.20     0.80        1     1.95
  C7               CIRCULAR             2.40     4.52     0.60     2.40        1    15.99
  C8               CIRCULAR             0.70     0.38     0.17     0.70        1     1.72
  C9               CIRCULAR             0.70     0.38     0.17     0.70        1     1.14
  C10              CIRCULAR             1.00     0.79     0.25     1.00        1     3.62
  C11              CIRCULAR             1.50     1.77     0.38     1.50        1     3.04
  C12              CIRCULAR             3.00     7.07     0.75     3.00        1    69.04
  C13              CIRCULAR             1.50     1.77     0.38     1.50        1    12.62
  C14              CIRCULAR             1.50     1.77     0.38     1.50        1     4.97
  C16              CIRCULAR             1.35     1.43     0.34     1.35        1     5.58
  C17              CIRCULAR             0.80     0.50     0.20     0.80        1     1.54
  C18              CIRCULAR             3.00     7.07     0.75     3.00        1    47.18
  C19              CIRCULAR             3.00     7.07     0.75     3.00        1    53.18
  C20              CIRCULAR             3.00     7.07     0.75     3.00        1    35.22
  C21              CIRCULAR             1.00     0.79     0.25     1.00        1     3.60
  C23              CIRCULAR             3.60    10.18     0.90     3.60        1    48.08
  C24              CIRCULAR             1.10     0.95     0.28     1.10        1     2.33
  C22              CIRCULAR             1.40     1.54     0.35     1.40        1     5.57
  
  
  
  *********************************************************
  NOTE: The summary statistics displayed in this report are
  based on results found at every computational time step,  
  not just on results from each reporting time step.
  *********************************************************
  
  ****************
  Analysis Options
  ****************
  Flow Units ............... CMS
  Process Models:
    Rainfall/Runoff ........ YES
    RDII ................... NO
    Snowmelt ............... NO
    Groundwater ............ NO
    Flow Routing ........... YES
    Ponding Allowed ........ NO
    Water Quality .......... NO
  Infiltration Method ...... HORTON
  Flow Routing Method ...... DYNWAVE
  Starting Date ............ 08/03/2005 07:05:00
  Ending Date .............. 08/04/2005 23:55:00
  Antecedent Dry Days ...... 0.0
  Report Time Step ......... 00:05:00
  Wet Time Step ............ 00:05:00
  Dry Time Step ............ 01:00:00
  Routing Time Step ........ 30.00 sec
  Variable Time Step ....... YES
  Maximum Trials ........... 8
  Number of Threads ........ 1
  Head Tolerance ........... 0.005000 m
  
  
  **************************        Volume         Depth
  Runoff Quantity Continuity     hectare-m            mm
  **************************     ---------       -------
  Total Precipitation ......         4.830        41.300
  Evaporation Loss .........         0.000         0.000
  Infiltration Loss ........         0.000         0.000
  Surface Runoff ...........         4.718        40.342
  Final Storage ............         0.118         1.008
  Continuity Error (%) .....         0.000
  
  
  **************************        Volume        Volume
  Flow Routing Continuity        hectare-m      10^6 ltr
  **************************     ---------     ---------
  Dry Weather Inflow .......         0.000         0.000
  Wet Weather Inflow .......         4.717        47.171
  Groundwater Inflow .......         0.000         0.000
  RDII Inflow ..............         0.000         0.000
  External Inflow ..........         0.000         0.000
  External Outflow .........         4.724        47.237
  Flooding Loss ............         0.000         0.000
  Evaporation Loss .........         0.000         0.000
  Exfiltration Loss ........         0.000         0.000
  Initial Stored Volume ....         0.021         0.207
  Final Stored Volume ......         0.003         0.031
  Continuity Error (%) .....         0.232
  
  
  ***************************
  Time-Step Critical Elements
  ***************************
  Link C14 (12.16%)
  
  
  ********************************
  Highest Flow Instability Indexes
  ********************************
  All links are stable.
  
  
  *************************
  Routing Time Step Summary
  *************************
  Minimum Time Step           :     2.33 sec
  Average Time Step           :    29.39 sec
  Maximum Time Step           :    30.00 sec
  Percent in Steady State     :     0.18
  Average Iterations per Step :     2.00
  Percent Not Converging      :     0.00
  
  
  ***************************
  Subcatchment Runoff Summary
  ***************************
  
  --------------------------------------------------------------------------------------------------------
                            Total      Total      Total      Total      Total       Total     Peak  Runoff
                           Precip      Runon       Evap      Infil     Runoff      Runoff   Runoff   Coeff
  Subcatchment                 mm         mm         mm         mm         mm    10^6 ltr      CMS
  --------------------------------------------------------------------------------------------------------
  S1                        41.30       0.00       0.00       0.00      41.43        0.92     0.15   1.003
  S2                        41.30       0.00       0.00       0.00      40.87        2.96     0.28   0.990
  S3                        41.30       0.00       0.00       0.00      41.32        0.63     0.08   1.000
  S4                        41.30       0.00       0.00       0.00      40.20        2.48     0.15   0.973
  S5                        41.30       0.00       0.00       0.00      39.38        3.65     0.19   0.953
  S6                        41.30       0.00       0.00       0.00      41.08        2.87     0.31   0.995
  S7                        41.30       0.00       0.00       0.00      41.15        1.35     0.15   0.996
  S8                        41.30       0.00       0.00       0.00      41.06        4.39     0.45   0.994
  S9                        41.30       0.00       0.00       0.00      38.39        6.31     0.35   0.930
  S10                       41.30       0.00       0.00       0.00      41.22        1.13     0.13   0.998
  S11                       41.30       0.00       0.00       0.00      40.89        3.79     0.35   0.990
  S12                       41.30       0.00       0.00       0.00      40.85        4.32     0.41   0.989
  S13                       41.30       0.00       0.00       0.00      41.01        4.13     0.42   0.993
  S14                       41.30       0.00       0.00       0.00      39.98        4.61     0.33   0.968
  S15                       41.30       0.00       0.00       0.00      40.70        3.63     0.32   0.986
  
  
  ******************
  Node Depth Summary
  ******************
  
  ---------------------------------------------------------------------------------
                                 Average  Maximum  Maximum  Time of Max    Reported
                                   Depth    Depth      HGL   Occurrence   Max Depth
  Node                 Type       Meters   Meters   Meters  days hr:min      Meters
  ---------------------------------------------------------------------------------
  J0                   JUNCTION     0.04     0.19    31.18     0  01:00        0.19
  J1                   JUNCTION     0.02     0.16    29.15     0  01:00        0.15
  J2                   JUNCTION     0.05     0.29    26.28     0  01:04        0.29
  J3                   JUNCTION     0.02     0.11    31.10     0  01:02        0.10
  J4                   JUNCTION     0.02     0.11    34.10     0  01:00        0.11
  J5                   JUNCTION     0.03     0.21    29.20     0  01:00        0.21
  J6                   JUNCTION     0.09     0.42    24.21     0  01:06        0.41
  J7                   JUNCTION     0.05     0.16    28.55     0  01:00        0.15
  J8                   JUNCTION     0.05     0.17    30.16     0  01:00        0.17
  J9                   JUNCTION     0.04     0.19    28.88     0  01:02        0.18
  J10                  JUNCTION     0.07     0.34    26.33     0  01:02        0.34
  J11                  JUNCTION     0.08     0.44    26.13     0  01:05        0.44
  J12                  JUNCTION     0.07     0.29    23.08     0  01:07        0.29
  J13                  JUNCTION     0.07     0.38    25.67     0  01:05        0.38
  J14                  JUNCTION     0.08     0.24    24.83     0  01:05        0.24
  J15                  JUNCTION     0.07     0.29    24.48     0  01:01        0.29
  J16                  JUNCTION     0.05     0.22    23.61     0  01:05        0.22
  J17                  JUNCTION     0.06     0.33    22.42     0  01:06        0.33
  J18                  JUNCTION     0.16     0.70    16.70     0  01:08        0.70
  J20                  JUNCTION     0.08     0.34    18.04     0  01:07        0.34
  J21                  JUNCTION     0.08     0.33    19.33     0  01:07        0.33
  J23                  JUNCTION     0.04     0.20    22.49     0  01:05        0.20
  J24                  JUNCTION     0.05     0.29    21.18     0  01:05        0.29
  J25                  JUNCTION     0.02     0.15    30.34     0  01:01        0.14
  J19                  OUTFALL      0.13     0.70    16.20     0  01:09        0.70
  
  
  *******************
  Node Inflow Summary
  *******************
  
  -------------------------------------------------------------------------------------------------
                                  Maximum  Maximum                  Lateral       Total        Flow
                                  Lateral    Total  Time of Max      Inflow      Inflow     Balance
                                   Inflow   Inflow   Occurrence      Volume      Volume       Error
  Node                 Type           CMS      CMS  days hr:min    10^6 ltr    10^6 ltr     Percent
  -------------------------------------------------------------------------------------------------
  J0                   JUNCTION     0.281    0.281     0  01:00        2.96        2.96      -0.267
  J1                   JUNCTION     0.153    0.153     0  01:00       0.915       0.915      -0.070
  J2                   JUNCTION     0.000    0.508     0  01:01           0        4.52      -0.333
  J3                   JUNCTION     0.000    0.080     0  01:00           0       0.633       0.023
  J4                   JUNCTION     0.080    0.080     0  01:00       0.633       0.633      -0.090
  J5                   JUNCTION     0.306    0.306     0  01:00        2.87        2.87      -0.018
  J6                   JUNCTION     0.000    0.986     0  01:04           0        11.1      -0.181
  J7                   JUNCTION     0.188    0.188     0  01:00        3.65        3.65       0.005
  J8                   JUNCTION     0.149    0.149     0  01:00        2.48        2.48       0.003
  J9                   JUNCTION     0.130    0.278     0  01:00        1.13        3.61      -0.039
  J10                  JUNCTION     0.348    0.348     0  01:00        3.79        3.79      -0.041
  J11                  JUNCTION     0.447    0.927     0  01:03        4.39        9.53       0.040
  J12                  JUNCTION     0.000    1.329     0  01:06           0        17.4      -0.191
  J13                  JUNCTION     0.000    0.924     0  01:05           0        9.52       0.004
  J14                  JUNCTION     0.350    0.350     0  01:05        6.31        6.31       0.016
  J15                  JUNCTION     0.333    0.333     0  01:05        4.61        4.61      -0.006
  J16                  JUNCTION     0.000    0.608     0  01:02           0        8.22       0.006
  J17                  JUNCTION     0.407    1.328     0  01:05        4.32        13.8      -0.012
  J18                  JUNCTION     0.000    3.957     0  01:07           0        47.2       0.015
  J20                  JUNCTION     0.000    1.323     0  01:06           0          16       0.012
  J21                  JUNCTION     0.000    0.920     0  01:05           0        11.9       0.055
  J23                  JUNCTION     0.323    0.323     0  01:05        3.63        3.63      -0.042
  J24                  JUNCTION     0.423    0.423     0  01:05        4.13        4.13      -0.058
  J25                  JUNCTION     0.146    0.146     0  01:00        1.35        1.35      -0.089
  J19                  OUTFALL      0.000    3.954     0  01:09           0        47.2       0.000
  
  
  **********************
  Node Surcharge Summary
  **********************
  
  No nodes were surcharged.
  
  
  *********************
  Node Flooding Summary
  *********************
  
  No nodes were flooded.
  
  
  ***********************
  Outfall Loading Summary
  ***********************
  
  -----------------------------------------------------------
                         Flow       Avg       Max       Total
                         Freq      Flow      Flow      Volume
  Outfall Node           Pcnt       CMS       CMS    10^6 ltr
  -----------------------------------------------------------
  J19                   99.80     0.359     3.954      47.237
  -----------------------------------------------------------
  System                99.80     0.359     3.954      47.237
  
  
  ********************
  Link Flow Summary
  ********************
  
  -----------------------------------------------------------------------------
                                 Maximum  Time of Max   Maximum    Max/    Max/
                                  |Flow|   Occurrence   |Veloc|    Full    Full
  Link                 Type          CMS  days hr:min     m/sec    Flow   Depth
  -----------------------------------------------------------------------------
  C0                   CONDUIT     0.281     0  01:00      2.51    0.17    0.34
  C1                   CONDUIT     0.153     0  01:00      1.94    0.15    0.37
  C2                   CONDUIT     0.077     0  01:02      0.89    0.04    0.24
  C3                   CONDUIT     0.080     0  01:00      2.34    0.07    0.18
  C4                   CONDUIT     0.497     0  01:04      1.81    0.12    0.29
  C5                   CONDUIT     0.306     0  01:01      1.96    0.19    0.45
  C6                   CONDUIT     0.144     0  01:01      1.06    0.07    0.36
  C7                   CONDUIT     0.982     0  01:06      2.39    0.06    0.15
  C8                   CONDUIT     0.189     0  01:00      1.74    0.11    0.41
  C9                   CONDUIT     0.149     0  01:00      1.94    0.13    0.25
  C10                  CONDUIT     0.274     0  01:02      2.53    0.08    0.20
  C11                  CONDUIT     0.343     0  01:03      0.95    0.11    0.26
  C12                  CONDUIT     1.321     0  01:07      1.74    0.02    0.16
  C13                  CONDUIT     1.325     0  01:06      2.52    0.11    0.34
  C14                  CONDUIT     0.924     0  01:05      2.37    0.19    0.27
  C16                  CONDUIT     0.924     0  01:06      3.09    0.17    0.26
  C17                  CONDUIT     0.422     0  01:05      2.42    0.27    0.39
  C18                  CONDUIT     1.316     0  01:08      1.60    0.03    0.17
  C19                  CONDUIT     0.598     0  01:05      1.85    0.01    0.09
  C20                  CONDUIT     0.907     0  01:07      2.07    0.03    0.11
  C21                  CONDUIT     0.323     0  01:05      2.33    0.09    0.27
  C23                  CONDUIT     3.954     0  01:09      2.85    0.08    0.19
  C24                  CONDUIT     0.334     0  01:02      2.02    0.14    0.23
  C22                  CONDUIT     0.350     0  01:05      1.85    0.06    0.19
  
  
  ***************************
  Flow Classification Summary
  ***************************
  
  -------------------------------------------------------------------------------------
                      Adjusted    ---------- Fraction of Time in Flow Class ---------- 
                       /Actual         Up    Down  Sub   Sup   Up    Down  Norm  Inlet 
  Conduit               Length    Dry  Dry   Dry   Crit  Crit  Crit  Crit  Ltd   Ctrl  
  -------------------------------------------------------------------------------------
  C0                      1.00   0.00  0.00  0.00  0.00  0.99  0.00  0.00  1.00  0.00
  C1                      1.00   0.00  0.00  0.00  0.95  0.05  0.00  0.00  1.00  0.00
  C2                      1.00   0.00  0.00  0.00  1.00  0.00  0.00  0.00  1.00  0.00
  C3                      1.00   0.00  0.00  0.00  0.00  1.00  0.00  0.00  0.25  0.00
  C4                      1.00   0.00  0.00  0.00  0.92  0.08  0.00  0.00  1.00  0.00
  C5                      1.00   0.00  0.00  0.00  0.88  0.11  0.00  0.00  1.00  0.00
  C6                      1.00   0.00  0.00  0.00  0.99  0.00  0.00  0.00  1.00  0.00
  C7                      1.00   0.00  0.00  0.00  0.65  0.35  0.00  0.00  0.00  0.00
  C8                      1.00   0.00  0.00  0.00  0.06  0.94  0.00  0.00  1.00  0.00
  C9                      1.00   0.00  0.00  0.00  0.00  1.00  0.00  0.00  0.08  0.00
  C10                     1.00   0.00  0.00  0.00  0.00  1.00  0.00  0.00  0.99  0.00
  C11                     1.00   0.00  0.00  0.00  1.00  0.00  0.00  0.00  0.99  0.00
  C12                     1.00   0.00  0.00  0.00  0.97  0.03  0.00  0.00  1.00  0.00
  C13                     1.00   0.00  0.00  0.00  0.85  0.15  0.00  0.00  1.00  0.00
  C14                     1.00   0.00  0.00  0.00  0.43  0.57  0.00  0.00  0.05  0.00
  C16                     1.00   0.00  0.00  0.00  0.01  0.99  0.00  0.00  0.00  0.00
  C17                     1.00   0.00  0.00  0.00  0.83  0.17  0.00  0.00  0.99  0.00
  C18                     1.00   0.00  0.00  0.00  1.00  0.00  0.00  0.00  1.00  0.00
  C19                     1.00   0.00  0.00  0.00  0.42  0.57  0.00  0.00  1.00  0.00
  C20                     1.00   0.00  0.00  0.00  0.32  0.67  0.00  0.00  0.10  0.00
  C21                     1.00   0.00  0.00  0.00  0.82  0.18  0.00  0.00  0.99  0.00
  C23                     1.00   0.00  0.00  0.00  0.00  1.00  0.00  0.00  0.23  0.00
  C24                     1.00   0.00  0.00  0.00  0.00  1.00  0.00  0.00  0.00  0.00
  C22                     1.00   0.00  0.00  0.00  0.00  0.99  0.00  0.00  0.15  0.00
  
  
  *************************
  Conduit Surcharge Summary
  *************************
  
  No conduits were surcharged.
  
  
  ********************
  Subcatchment Results
  ********************
  
  <<< Subcatchment S1 >>>
  ---------------------------------------------------
  Date        Time        Precip.    Losses    Runoff
                            mm/hr     mm/hr       CMS
  ---------------------------------------------------
   08/03/2005 07:10:00      3.600     0.000    0.0000
   08/03/2005 07:15:00     30.000     0.000    0.0008
   08/03/2005 07:20:00     45.600     0.000    0.0310
   08/03/2005 07:25:00     24.000     0.000    0.1046
   08/03/2005 07:30:00     27.600     0.000    0.1163
   08/03/2005 07:35:00     13.200     0.000    0.1327
   08/03/2005 07:40:00     13.200     0.000    0.1109
   08/03/2005 07:45:00     15.600     0.000    0.0989
   08/03/2005 07:50:00     18.000     0.000    0.0968
   08/03/2005 07:55:00     13.200     0.000    0.1007
   08/03/2005 08:00:00     42.000     0.000    0.0934
   08/03/2005 08:05:00     20.400     0.000    0.1532
   08/03/2005 08:10:00     12.000     0.000    0.1407
   08/03/2005 08:15:00      1.200     0.000    0.1150
   08/03/2005 08:20:00      0.000     0.000    0.0788
   08/03/2005 08:25:00      1.200     0.000    0.0558
   08/03/2005 08:30:00     14.400     0.000    0.0434
   08/03/2005 08:35:00      3.600     0.000    0.0560
   08/03/2005 08:40:00      1.200     0.000    0.0471
   08/03/2005 08:45:00      0.000     0.000    0.0374
   08/03/2005 08:50:00      2.400     0.000    0.0291
   08/03/2005 08:55:00      3.600     0.000    0.0263
   08/03/2005 09:00:00     14.400     0.000    0.0257
   08/03/2005 09:05:00     20.400     0.000    0.0406
   08/03/2005 09:10:00      1.200     0.000    0.0642
   08/03/2005 09:15:00      0.000     0.000    0.0479
   08/03/2005 09:20:00      0.000     0.000    0.0358
   08/03/2005 09:25:00      0.000     0.000    0.0277
   08/03/2005 09:30:00      0.000     0.000    0.0221
   08/03/2005 09:35:00     10.800     0.000    0.0180
   08/03/2005 09:40:00     10.800     0.000    0.0281
   08/03/2005 09:45:00      7.200     0.000    0.0372
   08/03/2005 09:50:00     19.200     0.000    0.0389
   08/03/2005 09:55:00     19.200     0.000    0.0604
   08/03/2005 10:00:00     12.000     0.000    0.0775
   08/03/2005 10:05:00      8.400     0.000    0.0756
   08/03/2005 10:10:00      9.600     0.000    0.0677
   08/03/2005 10:15:00      6.000     0.000    0.0648
   08/03/2005 10:20:00      1.200     0.000    0.0565
   08/03/2005 10:25:00      2.400     0.000    0.0432
   08/03/2005 10:30:00      2.400     0.000    0.0363
   08/03/2005 10:35:00      3.600     0.000    0.0314
   08/03/2005 10:40:00      2.400     0.000    0.0295
   08/03/2005 10:45:00      3.600     0.000    0.0264
   08/03/2005 10:50:00      4.800     0.000    0.0257
   08/03/2005 10:55:00      2.400     0.000    0.0267
   08/03/2005 11:00:00      6.000     0.000    0.0243
   08/03/2005 11:05:00      2.400     0.000    0.0271
   08/03/2005 11:10:00      2.400     0.000    0.0245
   08/03/2005 11:15:00      1.200     0.000    0.0226
   08/03/2005 11:20:00      2.400     0.000    0.0197
   08/03/2005 11:25:00      2.400     0.000    0.0188
   08/03/2005 11:30:00      2.400     0.000    0.0182
   08/03/2005 11:35:00      2.400     0.000    0.0176
   08/03/2005 11:40:00      1.200     0.000    0.0172
   08/03/2005 11:45:00      1.200     0.000    0.0155
   08/03/2005 11:50:00      3.600     0.000    0.0141
   08/03/2005 11:55:00      0.000     0.000    0.0156
   08/03/2005 12:00:00      0.000     0.000    0.0130
   08/03/2005 12:05:00      0.000     0.000    0.0109
   08/03/2005 12:10:00      0.000     0.000    0.0094
   08/03/2005 12:15:00      0.000     0.000    0.0081
   08/03/2005 12:20:00      0.000     0.000    0.0071
   08/03/2005 12:25:00      0.000     0.000    0.0062
   08/03/2005 12:30:00      0.000     0.000    0.0055
   08/03/2005 12:35:00      0.000     0.000    0.0049
   08/03/2005 12:40:00      0.000     0.000    0.0044
   08/03/2005 12:45:00      0.000     0.000    0.0040
   08/03/2005 12:50:00      0.000     0.000    0.0036
   08/03/2005 12:55:00      0.000     0.000    0.0033
   08/03/2005 13:00:00      0.000     0.000    0.0030
   08/03/2005 13:05:00      0.000     0.000    0.0027
   08/03/2005 13:10:00      0.000     0.000    0.0025
   08/03/2005 13:15:00      0.000     0.000    0.0023
   08/03/2005 13:20:00      0.000     0.000    0.0022
   08/03/2005 13:25:00      0.000     0.000    0.0020
   08/03/2005 13:30:00      0.000     0.000    0.0019
   08/03/2005 13:35:00      0.000     0.000    0.0017
   08/03/2005 13:40:00      0.000     0.000    0.0016
   08/03/2005 13:45:00      0.000     0.000    0.0015
   08/03/2005 13:50:00      0.000     0.000    0.0014
   08/03/2005 13:55:00      0.000     0.000    0.0013
   08/03/2005 14:00:00      0.000     0.000    0.0013
   08/03/2005 14:05:00      0.000     0.000    0.0012
   08/03/2005 14:10:00      0.000     0.000    0.0011
   08/03/2005 14:15:00      0.000     0.000    0.0011
   08/03/2005 14:20:00      0.000     0.000    0.0010
   08/03/2005 14:25:00      0.000     0.000    0.0009
   08/03/2005 14:30:00      0.000     0.000    0.0009
   08/03/2005 14:35:00      0.000     0.000    0.0008
   08/03/2005 14:40:00      0.000     0.000    0.0008
   08/03/2005 14:45:00      0.000     0.000    0.0008
   08/03/2005 14:50:00      0.000     0.000    0.0007
   08/03/2005 14:55:00      0.000     0.000    0.0007
   08/03/2005 15:00:00      0.000     0.000    0.0007
   08/03/2005 15:05:00      0.000     0.000    0.0006
   08/03/2005 15:10:00      0.000     0.000    0.0006
   08/03/2005 15:15:00      0.000     0.000    0.0006
   08/03/2005 15:20:00      0.000     0.000    0.0006
   08/03/2005 15:25:00      0.000     0.000    0.0005
   08/03/2005 15:30:00      0.000     0.000    0.0005
   08/03/2005 15:35:00      0.000     0.000    0.0005
   08/03/2005 15:40:00      0.000     0.000    0.0005
   08/03/2005 15:45:00      0.000     0.000    0.0005
   08/03/2005 15:50:00      0.000     0.000    0.0004
   08/03/2005 15:55:00      0.000     0.000    0.0004
   08/03/2005 16:00:00      0.000     0.000    0.0004
   08/03/2005 16:05:00      0.000     0.000    0.0004
   08/03/2005 16:10:00      0.000     0.000    0.0004
   08/03/2005 16:15:00      0.000     0.000    0.0004
   08/03/2005 16:20:00      0.000     0.000    0.0003
   08/03/2005 16:25:00      0.000     0.000    0.0003
   08/03/2005 16:30:00      0.000     0.000    0.0003
   08/03/2005 16:35:00      0.000     0.000    0.0003
   08/03/2005 16:40:00      0.000     0.000    0.0003
   08/03/2005 16:45:00      0.000     0.000    0.0003
   08/03/2005 16:50:00      0.000     0.000    0.0003
   08/03/2005 16:55:00      0.000     0.000    0.0003
   08/03/2005 17:00:00      0.000     0.000    0.0003
   08/03/2005 17:05:00      0.000     0.000    0.0003
   08/03/2005 17:10:00      0.000     0.000    0.0003
   08/03/2005 17:15:00      0.000     0.000    0.0002
   08/03/2005 17:20:00      0.000     0.000    0.0002
   08/03/2005 17:25:00      0.000     0.000    0.0002
   08/03/2005 17:30:00      0.000     0.000    0.0002
   08/03/2005 17:35:00      0.000     0.000    0.0002
   08/03/2005 17:40:00      0.000     0.000    0.0002
   08/03/2005 17:45:00      0.000     0.000    0.0002
   08/03/2005 17:50:00      0.000     0.000    0.0002
   08/03/2005 17:55:00      0.000     0.000    0.0002
   08/03/2005 18:00:00      0.000     0.000    0.0002
   08/03/2005 18:05:00      0.000     0.000    0.0002
   08/03/2005 18:10:00      0.000     0.000    0.0002
   08/03/2005 18:15:00      0.000     0.000    0.0002
   08/03/2005 18:20:00      0.000     0.000    0.0002
   08/03/2005 18:25:00      0.000     0.000    0.0002
   08/03/2005 18:30:00      0.000     0.000    0.0002
   08/03/2005 18:35:00      0.000     0.000    0.0000
   08/03/2005 18:40:00      0.000     0.000    0.0000
   08/03/2005 18:45:00      0.000     0.000    0.0000
   08/03/2005 18:50:00      0.000     0.000    0.0000
   08/03/2005 18:55:00      0.000     0.000    0.0000
   08/03/2005 19:00:00      0.000     0.000    0.0000
   08/03/2005 19:05:00      0.000     0.000    0.0000
   08/03/2005 19:10:00      0.000     0.000    0.0000
   08/03/2005 19:15:00      0.000     0.000    0.0000
   08/03/2005 19:20:00      0.000     0.000    0.0000
   08/03/2005 19:25:00      0.000     0.000    0.0000
   08/03/2005 19:30:00      0.000     0.000    0.0000
   08/03/2005 19:35:00      0.000     0.000    0.0000
   08/03/2005 19:40:00      0.000     0.000    0.0000
   08/03/2005 19:45:00      0.000     0.000    0.0000
   08/03/2005 19:50:00      0.000     0.000    0.0000
   08/03/2005 19:55:00      0.000     0.000    0.0000
   08/03/2005 20:00:00      0.000     0.000    0.0000
   08/03/2005 20:05:00      0.000     0.000    0.0000
   08/03/2005 20:10:00      0.000     0.000    0.0000
   08/03/2005 20:15:00      0.000     0.000    0.0000
   08/03/2005 20:20:00      0.000     0.000    0.0000
   08/03/2005 20:25:00      0.000     0.000    0.0000
   08/03/2005 20:30:00      0.000     0.000    0.0000
   08/03/2005 20:35:00      0.000     0.000    0.0000
   08/03/2005 20:40:00      0.000     0.000    0.0000
   08/03/2005 20:45:00      0.000     0.000    0.0000
   08/03/2005 20:50:00      0.000     0.000    0.0000
   08/03/2005 20:55:00      0.000     0.000    0.0000
   08/03/2005 21:00:00      0.000     0.000    0.0000
   08/03/2005 21:05:00      0.000     0.000    0.0000
   08/03/2005 21:10:00      0.000     0.000    0.0000
   08/03/2005 21:15:00      0.000     0.000    0.0000
   08/03/2005 21:20:00      0.000     0.000    0.0000
   08/03/2005 21:25:00      0.000     0.000    0.0000
   08/03/2005 21:30:00      0.000     0.000    0.0000
   08/03/2005 21:35:00      0.000     0.000    0.0000
   08/03/2005 21:40:00      0.000     0.000    0.0000
   08/03/2005 21:45:00      0.000     0.000    0.0000
   08/03/2005 21:50:00      0.000     0.000    0.0000
   08/03/2005 21:55:00      0.000     0.000    0.0000
   08/03/2005 22:00:00      0.000     0.000    0.0000
   08/03/2005 22:05:00      0.000     0.000    0.0000
   08/03/2005 22:10:00      0.000     0.000    0.0000
   08/03/2005 22:15:00      0.000     0.000    0.0000
   08/03/2005 22:20:00      0.000     0.000    0.0000
   08/03/2005 22:25:00      0.000     0.000    0.0000
   08/03/2005 22:30:00      0.000     0.000    0.0000
   08/03/2005 22:35:00      0.000     0.000    0.0000
   08/03/2005 22:40:00      0.000     0.000    0.0000
   08/03/2005 22:45:00      0.000     0.000    0.0000
   08/03/2005 22:50:00      0.000     0.000    0.0000
   08/03/2005 22:55:00      0.000     0.000    0.0000
   08/03/2005 23:00:00      0.000     0.000    0.0000
   08/03/2005 23:05:00      0.000     0.000    0.0000
   08/03/2005 23:10:00      0.000     0.000    0.0000
   08/03/2005 23:15:00      0.000     0.000    0.0000
   08/03/2005 23:20:00      0.000     0.000    0.0000
   08/03/2005 23:25:00      0.000     0.000    0.0000
   08/03/2005 23:30:00      0.000     0.000    0.0000
   08/03/2005 23:35:00      0.000     0.000    0.0000
   08/03/2005 23:40:00      0.000     0.000    0.0000
   08/03/2005 23:45:00      0.000     0.000    0.0000
   08/03/2005 23:50:00      0.000     0.000    0.0000
   08/03/2005 23:55:00      0.000     0.000    0.0000
   08/04/2005 00:00:00      0.000     0.000    0.0000
   08/04/2005 00:05:00      0.000     0.000    0.0000
   08/04/2005 00:10:00      0.000     0.000    0.0000
   08/04/2005 00:15:00      0.000     0.000    0.0000
   08/04/2005 00:20:00      0.000     0.000    0.0000
   08/04/2005 00:25:00      0.000     0.000    0.0000
   08/04/2005 00:30:00      0.000     0.000    0.0000
   08/04/2005 00:35:00      0.000     0.000    0.0000
   08/04/2005 00:40:00      0.000     0.000    0.0000
   08/04/2005 00:45:00      0.000     0.000    0.0000
   08/04/2005 00:50:00      0.000     0.000    0.0000
   08/04/2005 00:55:00      0.000     0.000    0.0000
   08/04/2005 01:00:00      0.000     0.000    0.0000
   08/04/2005 01:05:00      0.000     0.000    0.0000
   08/04/2005 01:10:00      0.000     0.000    0.0000
   08/04/2005 01:15:00      0.000     0.000    0.0000
   08/04/2005 01:20:00      0.000     0.000    0.0000
   08/04/2005 01:25:00      0.000     0.000    0.0000
   08/04/2005 01:30:00      0.000     0.000    0.0000
   08/04/2005 01:35:00      0.000     0.000    0.0000
   08/04/2005 01:40:00      0.000     0.000    0.0000
   08/04/2005 01:45:00      0.000     0.000    0.0000
   08/04/2005 01:50:00      0.000     0.000    0.0000
   08/04/2005 01:55:00      0.000     0.000    0.0000
   08/04/2005 02:00:00      0.000     0.000    0.0000
   08/04/2005 02:05:00      0.000     0.000    0.0000
   08/04/2005 02:10:00      0.000     0.000    0.0000
   08/04/2005 02:15:00      0.000     0.000    0.0000
   08/04/2005 02:20:00      0.000     0.000    0.0000
   08/04/2005 02:25:00      0.000     0.000    0.0000
   08/04/2005 02:30:00      0.000     0.000    0.0000
   08/04/2005 02:35:00      0.000     0.000    0.0000
   08/04/2005 02:40:00      0.000     0.000    0.0000
   08/04/2005 02:45:00      0.000     0.000    0.0000
   08/04/2005 02:50:00      0.000     0.000    0.0000
   08/04/2005 02:55:00      0.000     0.000    0.0000
   08/04/2005 03:00:00      0.000     0.000    0.0000
   08/04/2005 03:05:00      0.000     0.000    0.0000
   08/04/2005 03:10:00      0.000     0.000    0.0000
   08/04/2005 03:15:00      0.000     0.000    0.0000
   08/04/2005 03:20:00      0.000     0.000    0.0000
   08/04/2005 03:25:00      0.000     0.000    0.0000
   08/04/2005 03:30:00      0.000     0.000    0.0000
   08/04/2005 03:35:00      0.000     0.000    0.0000
   08/04/2005 03:40:00      0.000     0.000    0.0000
   08/04/2005 03:45:00      0.000     0.000    0.0000
   08/04/2005 03:50:00      0.000     0.000    0.0000
   08/04/2005 03:55:00      0.000     0.000    0.0000
   08/04/2005 04:00:00      0.000     0.000    0.0000
   08/04/2005 04:05:00      0.000     0.000    0.0000
   08/04/2005 04:10:00      0.000     0.000    0.0000
   08/04/2005 04:15:00      0.000     0.000    0.0000
   08/04/2005 04:20:00      0.000     0.000    0.0000
   08/04/2005 04:25:00      0.000     0.000    0.0000
   08/04/2005 04:30:00      0.000     0.000    0.0000
   08/04/2005 04:35:00      0.000     0.000    0.0000
   08/04/2005 04:40:00      0.000     0.000    0.0000
   08/04/2005 04:45:00      0.000     0.000    0.0000
   08/04/2005 04:50:00      0.000     0.000    0.0000
   08/04/2005 04:55:00      0.000     0.000    0.0000
   08/04/2005 05:00:00      0.000     0.000    0.0000
   08/04/2005 05:05:00      0.000     0.000    0.0000
   08/04/2005 05:10:00      0.000     0.000    0.0000
   08/04/2005 05:15:00      0.000     0.000    0.0000
   08/04/2005 05:20:00      0.000     0.000    0.0000
   08/04/2005 05:25:00      0.000     0.000    0.0000
   08/04/2005 05:30:00      0.000     0.000    0.0000
   08/04/2005 05:35:00      0.000     0.000    0.0000
   08/04/2005 05:40:00      0.000     0.000    0.0000
   08/04/2005 05:45:00      0.000     0.000    0.0000
   08/04/2005 05:50:00      0.000     0.000    0.0000
   08/04/2005 05:55:00      0.000     0.000    0.0000
   08/04/2005 06:00:00      0.000     0.000    0.0000
   08/04/2005 06:05:00      0.000     0.000    0.0000
   08/04/2005 06:10:00      0.000     0.000    0.0000
   08/04/2005 06:15:00      0.000     0.000    0.0000
   08/04/2005 06:20:00      0.000     0.000    0.0000
   08/04/2005 06:25:00      0.000     0.000    0.0000
   08/04/2005 06:30:00      0.000     0.000    0.0000
   08/04/2005 06:35:00      0.000     0.000    0.0000
   08/04/2005 06:40:00      0.000     0.000    0.0000
   08/04/2005 06:45:00      0.000     0.000    0.0000
   08/04/2005 06:50:00      0.000     0.000    0.0000
   08/04/2005 06:55:00      0.000     0.000    0.0000
   08/04/2005 07:00:00      0.000     0.000    0.0000
   08/04/2005 07:05:00      0.000     0.000    0.0000
   08/04/2005 07:10:00      0.000     0.000    0.0000
   08/04/2005 07:15:00      0.000     0.000    0.0000
   08/04/2005 07:20:00      0.000     0.000    0.0000
   08/04/2005 07:25:00      0.000     0.000    0.0000
   08/04/2005 07:30:00      0.000     0.000    0.0000
   08/04/2005 07:35:00      0.000     0.000    0.0000
   08/04/2005 07:40:00      0.000     0.000    0.0000
   08/04/2005 07:45:00      0.000     0.000    0.0000
   08/04/2005 07:50:00      0.000     0.000    0.0000
   08/04/2005 07:55:00      0.000     0.000    0.0000
   08/04/2005 08:00:00      0.000     0.000    0.0000
   08/04/2005 08:05:00      0.000     0.000    0.0000
   08/04/2005 08:10:00      0.000     0.000    0.0000
   08/04/2005 08:15:00      0.000     0.000    0.0000
   08/04/2005 08:20:00      0.000     0.000    0.0000
   08/04/2005 08:25:00      0.000     0.000    0.0000
   08/04/2005 08:30:00      0.000     0.000    0.0000
   08/04/2005 08:35:00      0.000     0.000    0.0000
   08/04/2005 08:40:00      0.000     0.000    0.0000
   08/04/2005 08:45:00      0.000     0.000    0.0000
   08/04/2005 08:50:00      0.000     0.000    0.0000
   08/04/2005 08:55:00      0.000     0.000    0.0000
   08/04/2005 09:00:00      0.000     0.000    0.0000
   08/04/2005 09:05:00      0.000     0.000    0.0000
   08/04/2005 09:10:00      0.000     0.000    0.0000
   08/04/2005 09:15:00      0.000     0.000    0.0000
   08/04/2005 09:20:00      0.000     0.000    0.0000
   08/04/2005 09:25:00      0.000     0.000    0.0000
   08/04/2005 09:30:00      0.000     0.000    0.0000
   08/04/2005 09:35:00      0.000     0.000    0.0000
   08/04/2005 09:40:00      0.000     0.000    0.0000
   08/04/2005 09:45:00      0.000     0.000    0.0000
   08/04/2005 09:50:00      0.000     0.000    0.0000
   08/04/2005 09:55:00      0.000     0.000    0.0000
   08/04/2005 10:00:00      0.000     0.000    0.0000
   08/04/2005 10:05:00      0.000     0.000    0.0000
   08/04/2005 10:10:00      0.000     0.000    0.0000
   08/04/2005 10:15:00      0.000     0.000    0.0000
   08/04/2005 10:20:00      0.000     0.000    0.0000
   08/04/2005 10:25:00      0.000     0.000    0.0000
   08/04/2005 10:30:00      0.000     0.000    0.0000
   08/04/2005 10:35:00      0.000     0.000    0.0000
   08/04/2005 10:40:00      0.000     0.000    0.0000
   08/04/2005 10:45:00      0.000     0.000    0.0000
   08/04/2005 10:50:00      0.000     0.000    0.0000
   08/04/2005 10:55:00      0.000     0.000    0.0000
   08/04/2005 11:00:00      0.000     0.000    0.0000
   08/04/2005 11:05:00      0.000     0.000    0.0000
   08/04/2005 11:10:00      0.000     0.000    0.0000
   08/04/2005 11:15:00      0.000     0.000    0.0000
   08/04/2005 11:20:00      0.000     0.000    0.0000
   08/04/2005 11:25:00      0.000     0.000    0.0000
   08/04/2005 11:30:00      0.000     0.000    0.0000
   08/04/2005 11:35:00      0.000     0.000    0.0000
   08/04/2005 11:40:00      0.000     0.000    0.0000
   08/04/2005 11:45:00      0.000     0.000    0.0000
   08/04/2005 11:50:00      0.000     0.000    0.0000
   08/04/2005 11:55:00      0.000     0.000    0.0000
   08/04/2005 12:00:00      0.000     0.000    0.0000
   08/04/2005 12:05:00      0.000     0.000    0.0000
   08/04/2005 12:10:00      0.000     0.000    0.0000
   08/04/2005 12:15:00      0.000     0.000    0.0000
   08/04/2005 12:20:00      0.000     0.000    0.0000
   08/04/2005 12:25:00      0.000     0.000    0.0000
   08/04/2005 12:30:00      0.000     0.000    0.0000
   08/04/2005 12:35:00      0.000     0.000    0.0000
   08/04/2005 12:40:00      0.000     0.000    0.0000
   08/04/2005 12:45:00      0.000     0.000    0.0000
   08/04/2005 12:50:00      0.000     0.000    0.0000
   08/04/2005 12:55:00      0.000     0.000    0.0000
   08/04/2005 13:00:00      0.000     0.000    0.0000
   08/04/2005 13:05:00      0.000     0.000    0.0000
   08/04/2005 13:10:00      0.000     0.000    0.0000
   08/04/2005 13:15:00      0.000     0.000    0.0000
   08/04/2005 13:20:00      0.000     0.000    0.0000
   08/04/2005 13:25:00      0.000     0.000    0.0000
   08/04/2005 13:30:00      0.000     0.000    0.0000
   08/04/2005 13:35:00      0.000     0.000    0.0000
   08/04/2005 13:40:00      0.000     0.000    0.0000
   08/04/2005 13:45:00      0.000     0.000    0.0000
   08/04/2005 13:50:00      0.000     0.000    0.0000
   08/04/2005 13:55:00      0.000     0.000    0.0000
   08/04/2005 14:00:00      0.000     0.000    0.0000
   08/04/2005 14:05:00      0.000     0.000    0.0000
   08/04/2005 14:10:00      0.000     0.000    0.0000
   08/04/2005 14:15:00      0.000     0.000    0.0000
   08/04/2005 14:20:00      0.000     0.000    0.0000
   08/04/2005 14:25:00      0.000     0.000    0.0000
   08/04/2005 14:30:00      0.000     0.000    0.0000
   08/04/2005 14:35:00      0.000     0.000    0.0000
   08/04/2005 14:40:00      0.000     0.000    0.0000
   08/04/2005 14:45:00      0.000     0.000    0.0000
   08/04/2005 14:50:00      0.000     0.000    0.0000
   08/04/2005 14:55:00      0.000     0.000    0.0000
   08/04/2005 15:00:00      0.000     0.000    0.0000
   08/04/2005 15:05:00      0.000     0.000    0.0000
   08/04/2005 15:10:00      0.000     0.000    0.0000
   08/04/2005 15:15:00      0.000     0.000    0.0000
   08/04/2005 15:20:00      0.000     0.000    0.0000
   08/04/2005 15:25:00      0.000     0.000    0.0000
   08/04/2005 15:30:00      0.000     0.000    0.0000
   08/04/2005 15:35:00      0.000     0.000    0.0000
   08/04/2005 15:40:00      0.000     0.000    0.0000
   08/04/2005 15:45:00      0.000     0.000    0.0000
   08/04/2005 15:50:00      0.000     0.000    0.0000
   08/04/2005 15:55:00      0.000     0.000    0.0000
   08/04/2005 16:00:00      0.000     0.000    0.0000
   08/04/2005 16:05:00      0.000     0.000    0.0000
   08/04/2005 16:10:00      0.000     0.000    0.0000
   08/04/2005 16:15:00      0.000     0.000    0.0000
   08/04/2005 16:20:00      0.000     0.000    0.0000
   08/04/2005 16:25:00      0.000     0.000    0.0000
   08/04/2005 16:30:00      0.000     0.000    0.0000
   08/04/2005 16:35:00      0.000     0.000    0.0000
   08/04/2005 16:40:00      0.000     0.000    0.0000
   08/04/2005 16:45:00      0.000     0.000    0.0000
   08/04/2005 16:50:00      0.000     0.000    0.0000
   08/04/2005 16:55:00      0.000     0.000    0.0000
   08/04/2005 17:00:00      0.000     0.000    0.0000
   08/04/2005 17:05:00      0.000     0.000    0.0000
   08/04/2005 17:10:00      0.000     0.000    0.0000
   08/04/2005 17:15:00      0.000     0.000    0.0000
   08/04/2005 17:20:00      0.000     0.000    0.0000
   08/04/2005 17:25:00      0.000     0.000    0.0000
   08/04/2005 17:30:00      0.000     0.000    0.0000
   08/04/2005 17:35:00      0.000     0.000    0.0000
   08/04/2005 17:40:00      0.000     0.000    0.0000
   08/04/2005 17:45:00      0.000     0.000    0.0000
   08/04/2005 17:50:00      0.000     0.000    0.0000
   08/04/2005 17:55:00      0.000     0.000    0.0000
   08/04/2005 18:00:00      0.000     0.000    0.0000
   08/04/2005 18:05:00      0.000     0.000    0.0000
   08/04/2005 18:10:00      0.000     0.000    0.0000
   08/04/2005 18:15:00      0.000     0.000    0.0000
   08/04/2005 18:20:00      0.000     0.000    0.0000
   08/04/2005 18:25:00      0.000     0.000    0.0000
   08/04/2005 18:30:00      0.000     0.000    0.0000
   08/04/2005 18:35:00      0.000     0.000    0.0000
   08/04/2005 18:40:00      0.000     0.000    0.0000
   08/04/2005 18:45:00      0.000     0.000    0.0000
   08/04/2005 18:50:00      0.000     0.000    0.0000
   08/04/2005 18:55:00      0.000     0.000    0.0000
   08/04/2005 19:00:00      0.000     0.000    0.0000
   08/04/2005 19:05:00      0.000     0.000    0.0000
   08/04/2005 19:10:00      0.000     0.000    0.0000
   08/04/2005 19:15:00      0.000     0.000    0.0000
   08/04/2005 19:20:00      0.000     0.000    0.0000
   08/04/2005 19:25:00      0.000     0.000    0.0000
   08/04/2005 19:30:00      0.000     0.000    0.0000
   08/04/2005 19:35:00      0.000     0.000    0.0000
   08/04/2005 19:40:00      0.000     0.000    0.0000
   08/04/2005 19:45:00      0.000     0.000    0.0000
   08/04/2005 19:50:00      0.000     0.000    0.0000
   08/04/2005 19:55:00      0.000     0.000    0.0000
   08/04/2005 20:00:00      0.000     0.000    0.0000
   08/04/2005 20:05:00      0.000     0.000    0.0000
   08/04/2005 20:10:00      0.000     0.000    0.0000
   08/04/2005 20:15:00      0.000     0.000    0.0000
   08/04/2005 20:20:00      0.000     0.000    0.0000
   08/04/2005 20:25:00      0.000     0.000    0.0000
   08/04/2005 20:30:00      0.000     0.000    0.0000
   08/04/2005 20:35:00      0.000     0.000    0.0000
   08/04/2005 20:40:00      0.000     0.000    0.0000
   08/04/2005 20:45:00      0.000     0.000    0.0000
   08/04/2005 20:50:00      0.000     0.000    0.0000
   08/04/2005 20:55:00      0.000     0.000    0.0000
   08/04/2005 21:00:00      0.000     0.000    0.0000
   08/04/2005 21:05:00      0.000     0.000    0.0000
   08/04/2005 21:10:00      0.000     0.000    0.0000
   08/04/2005 21:15:00      0.000     0.000    0.0000
   08/04/2005 21:20:00      0.000     0.000    0.0000
   08/04/2005 21:25:00      0.000     0.000    0.0000
   08/04/2005 21:30:00      0.000     0.000    0.0000
   08/04/2005 21:35:00      0.000     0.000    0.0000
   08/04/2005 21:40:00      0.000     0.000    0.0000
   08/04/2005 21:45:00      0.000     0.000    0.0000
   08/04/2005 21:50:00      0.000     0.000    0.0000
   08/04/2005 21:55:00      0.000     0.000    0.0000
   08/04/2005 22:00:00      0.000     0.000    0.0000
   08/04/2005 22:05:00      0.000     0.000    0.0000
   08/04/2005 22:10:00      0.000     0.000    0.0000
   08/04/2005 22:15:00      0.000     0.000    0.0000
   08/04/2005 22:20:00      0.000     0.000    0.0000
   08/04/2005 22:25:00      0.000     0.000    0.0000
   08/04/2005 22:30:00      0.000     0.000    0.0000
   08/04/2005 22:35:00      0.000     0.000    0.0000
   08/04/2005 22:40:00      0.000     0.000    0.0000
   08/04/2005 22:45:00      0.000     0.000    0.0000
   08/04/2005 22:50:00      0.000     0.000    0.0000
   08/04/2005 22:55:00      0.000     0.000    0.0000
   08/04/2005 23:00:00      0.000     0.000    0.0000
   08/04/2005 23:05:00      0.000     0.000    0.0000
   08/04/2005 23:10:00      0.000     0.000    0.0000
   08/04/2005 23:15:00      0.000     0.000    0.0000
   08/04/2005 23:20:00      0.000     0.000    0.0000
   08/04/2005 23:25:00      0.000     0.000    0.0000
   08/04/2005 23:30:00      0.000     0.000    0.0000
   08/04/2005 23:35:00      0.000     0.000    0.0000
   08/04/2005 23:40:00      0.000     0.000    0.0000
   08/04/2005 23:45:00      0.000     0.000    0.0000
   08/04/2005 23:50:00      0.000     0.000    0.0000
   08/04/2005 23:55:00      0.000     0.000    0.0000
  
  
  <<< Subcatchment S2 >>>
  ---------------------------------------------------
  Date        Time        Precip.    Losses    Runoff
                            mm/hr     mm/hr       CMS
  ---------------------------------------------------
   08/03/2005 07:10:00      3.600     0.000    0.0000
   08/03/2005 07:15:00     30.000     0.000    0.0008
   08/03/2005 07:20:00     45.600     0.000    0.0331
   08/03/2005 07:25:00     24.000     0.000    0.1237
   08/03/2005 07:30:00     27.600     0.000    0.1596
   08/03/2005 07:35:00     13.200     0.000    0.2008
   08/03/2005 07:40:00     13.200     0.000    0.1904
   08/03/2005 07:45:00     15.600     0.000    0.1840
   08/03/2005 07:50:00     18.000     0.000    0.1872
   08/03/2005 07:55:00     13.200     0.000    0.1978
   08/03/2005 08:00:00     42.000     0.000    0.1926
   08/03/2005 08:05:00     20.400     0.000    0.2810
   08/03/2005 08:10:00     12.000     0.000    0.2790
   08/03/2005 08:15:00      1.200     0.000    0.2517
   08/03/2005 08:20:00      0.000     0.000    0.2011
   08/03/2005 08:25:00      1.200     0.000    0.1637
   08/03/2005 08:30:00     14.400     0.000    0.1403
   08/03/2005 08:35:00      3.600     0.000    0.1563
   08/03/2005 08:40:00      1.200     0.000    0.1415
   08/03/2005 08:45:00      0.000     0.000    0.1246
   08/03/2005 08:50:00      2.400     0.000    0.1090
   08/03/2005 08:55:00      3.600     0.000    0.1020
   08/03/2005 09:00:00     14.400     0.000    0.0988
   08/03/2005 09:05:00     20.400     0.000    0.1200
   08/03/2005 09:10:00      1.200     0.000    0.1547
   08/03/2005 09:15:00      0.000     0.000    0.1351
   08/03/2005 09:20:00      0.000     0.000    0.1176
   08/03/2005 09:25:00      0.000     0.000    0.1041
   08/03/2005 09:30:00      0.000     0.000    0.0935
   08/03/2005 09:35:00     10.800     0.000    0.0849
   08/03/2005 09:40:00     10.800     0.000    0.0990
   08/03/2005 09:45:00      7.200     0.000    0.1121
   08/03/2005 09:50:00     19.200     0.000    0.1154
   08/03/2005 09:55:00     19.200     0.000    0.1475
   08/03/2005 10:00:00     12.000     0.000    0.1764
   08/03/2005 10:05:00      8.400     0.000    0.1808
   08/03/2005 10:10:00      9.600     0.000    0.1747
   08/03/2005 10:15:00      6.000     0.000    0.1736
   08/03/2005 10:20:00      1.200     0.000    0.1633
   08/03/2005 10:25:00      2.400     0.000    0.1435
   08/03/2005 10:30:00      2.400     0.000    0.1312
   08/03/2005 10:35:00      3.600     0.000    0.1216
   08/03/2005 10:40:00      2.400     0.000    0.1164
   08/03/2005 10:45:00      3.600     0.000    0.1096
   08/03/2005 10:50:00      4.800     0.000    0.1065
   08/03/2005 10:55:00      2.400     0.000    0.1063
   08/03/2005 11:00:00      6.000     0.000    0.1011
   08/03/2005 11:05:00      2.400     0.000    0.1041
   08/03/2005 11:10:00      2.400     0.000    0.0991
   08/03/2005 11:15:00      1.200     0.000    0.0949
   08/03/2005 11:20:00      2.400     0.000    0.0890
   08/03/2005 11:25:00      2.400     0.000    0.0862
   08/03/2005 11:30:00      2.400     0.000    0.0838
   08/03/2005 11:35:00      2.400     0.000    0.0816
   08/03/2005 11:40:00      1.200     0.000    0.0797
   08/03/2005 11:45:00      1.200     0.000    0.0758
   08/03/2005 11:50:00      3.600     0.000    0.0724
   08/03/2005 11:55:00      0.000     0.000    0.0735
   08/03/2005 12:00:00      0.000     0.000    0.0683
   08/03/2005 12:05:00      0.000     0.000    0.0637
   08/03/2005 12:10:00      0.000     0.000    0.0598
   08/03/2005 12:15:00      0.000     0.000    0.0563
   08/03/2005 12:20:00      0.000     0.000    0.0533
   08/03/2005 12:25:00      0.000     0.000    0.0505
   08/03/2005 12:30:00      0.000     0.000    0.0480
   08/03/2005 12:35:00      0.000     0.000    0.0457
   08/03/2005 12:40:00      0.000     0.000    0.0437
   08/03/2005 12:45:00      0.000     0.000    0.0418
   08/03/2005 12:50:00      0.000     0.000    0.0400
   08/03/2005 12:55:00      0.000     0.000    0.0384
   08/03/2005 13:00:00      0.000     0.000    0.0369
   08/03/2005 13:05:00      0.000     0.000    0.0355
   08/03/2005 13:10:00      0.000     0.000    0.0342
   08/03/2005 13:15:00      0.000     0.000    0.0330
   08/03/2005 13:20:00      0.000     0.000    0.0318
   08/03/2005 13:25:00      0.000     0.000    0.0307
   08/03/2005 13:30:00      0.000     0.000    0.0297
   08/03/2005 13:35:00      0.000     0.000    0.0287
   08/03/2005 13:40:00      0.000     0.000    0.0278
   08/03/2005 13:45:00      0.000     0.000    0.0269
   08/03/2005 13:50:00      0.000     0.000    0.0261
   08/03/2005 13:55:00      0.000     0.000    0.0253
   08/03/2005 14:00:00      0.000     0.000    0.0246
   08/03/2005 14:05:00      0.000     0.000    0.0238
   08/03/2005 14:10:00      0.000     0.000    0.0232
   08/03/2005 14:15:00      0.000     0.000    0.0225
   08/03/2005 14:20:00      0.000     0.000    0.0219
   08/03/2005 14:25:00      0.000     0.000    0.0213
   08/03/2005 14:30:00      0.000     0.000    0.0207
   08/03/2005 14:35:00      0.000     0.000    0.0201
   08/03/2005 14:40:00      0.000     0.000    0.0196
   08/03/2005 14:45:00      0.000     0.000    0.0191
   08/03/2005 14:50:00      0.000     0.000    0.0186
   08/03/2005 14:55:00      0.000     0.000    0.0181
   08/03/2005 15:00:00      0.000     0.000    0.0177
   08/03/2005 15:05:00      0.000     0.000    0.0172
   08/03/2005 15:10:00      0.000     0.000    0.0168
   08/03/2005 15:15:00      0.000     0.000    0.0164
   08/03/2005 15:20:00      0.000     0.000    0.0160
   08/03/2005 15:25:00      0.000     0.000    0.0156
   08/03/2005 15:30:00      0.000     0.000    0.0153
   08/03/2005 15:35:00      0.000     0.000    0.0149
   08/03/2005 15:40:00      0.000     0.000    0.0146
   08/03/2005 15:45:00      0.000     0.000    0.0143
   08/03/2005 15:50:00      0.000     0.000    0.0139
   08/03/2005 15:55:00      0.000     0.000    0.0136
   08/03/2005 16:00:00      0.000     0.000    0.0133
   08/03/2005 16:05:00      0.000     0.000    0.0130
   08/03/2005 16:10:00      0.000     0.000    0.0128
   08/03/2005 16:15:00      0.000     0.000    0.0125
   08/03/2005 16:20:00      0.000     0.000    0.0122
   08/03/2005 16:25:00      0.000     0.000    0.0120
   08/03/2005 16:30:00      0.000     0.000    0.0117
   08/03/2005 16:35:00      0.000     0.000    0.0115
   08/03/2005 16:40:00      0.000     0.000    0.0112
   08/03/2005 16:45:00      0.000     0.000    0.0110
   08/03/2005 16:50:00      0.000     0.000    0.0108
   08/03/2005 16:55:00      0.000     0.000    0.0106
   08/03/2005 17:00:00      0.000     0.000    0.0104
   08/03/2005 17:05:00      0.000     0.000    0.0102
   08/03/2005 17:10:00      0.000     0.000    0.0100
   08/03/2005 17:15:00      0.000     0.000    0.0098
   08/03/2005 17:20:00      0.000     0.000    0.0096
   08/03/2005 17:25:00      0.000     0.000    0.0094
   08/03/2005 17:30:00      0.000     0.000    0.0092
   08/03/2005 17:35:00      0.000     0.000    0.0091
   08/03/2005 17:40:00      0.000     0.000    0.0089
   08/03/2005 17:45:00      0.000     0.000    0.0087
   08/03/2005 17:50:00      0.000     0.000    0.0086
   08/03/2005 17:55:00      0.000     0.000    0.0084
   08/03/2005 18:00:00      0.000     0.000    0.0083
   08/03/2005 18:05:00      0.000     0.000    0.0081
   08/03/2005 18:10:00      0.000     0.000    0.0080
   08/03/2005 18:15:00      0.000     0.000    0.0079
   08/03/2005 18:20:00      0.000     0.000    0.0077
   08/03/2005 18:25:00      0.000     0.000    0.0076
   08/03/2005 18:30:00      0.000     0.000    0.0075
   08/03/2005 18:35:00      0.000     0.000    0.0073
   08/03/2005 18:40:00      0.000     0.000    0.0072
   08/03/2005 18:45:00      0.000     0.000    0.0071
   08/03/2005 18:50:00      0.000     0.000    0.0070
   08/03/2005 18:55:00      0.000     0.000    0.0069
   08/03/2005 19:00:00      0.000     0.000    0.0067
   08/03/2005 19:05:00      0.000     0.000    0.0066
   08/03/2005 19:10:00      0.000     0.000    0.0065
   08/03/2005 19:15:00      0.000     0.000    0.0064
   08/03/2005 19:20:00      0.000     0.000    0.0063
   08/03/2005 19:25:00      0.000     0.000    0.0062
   08/03/2005 19:30:00      0.000     0.000    0.0061
   08/03/2005 19:35:00      0.000     0.000    0.0060
   08/03/2005 19:40:00      0.000     0.000    0.0059
   08/03/2005 19:45:00      0.000     0.000    0.0058
   08/03/2005 19:50:00      0.000     0.000    0.0057
   08/03/2005 19:55:00      0.000     0.000    0.0057
   08/03/2005 20:00:00      0.000     0.000    0.0056
   08/03/2005 20:05:00      0.000     0.000    0.0055
   08/03/2005 20:10:00      0.000     0.000    0.0054
   08/03/2005 20:15:00      0.000     0.000    0.0053
   08/03/2005 20:20:00      0.000     0.000    0.0052
   08/03/2005 20:25:00      0.000     0.000    0.0052
   08/03/2005 20:30:00      0.000     0.000    0.0051
   08/03/2005 20:35:00      0.000     0.000    0.0050
   08/03/2005 20:40:00      0.000     0.000    0.0049
   08/03/2005 20:45:00      0.000     0.000    0.0049
   08/03/2005 20:50:00      0.000     0.000    0.0048
   08/03/2005 20:55:00      0.000     0.000    0.0047
   08/03/2005 21:00:00      0.000     0.000    0.0047
   08/03/2005 21:05:00      0.000     0.000    0.0046
   08/03/2005 21:10:00      0.000     0.000    0.0045
   08/03/2005 21:15:00      0.000     0.000    0.0045
   08/03/2005 21:20:00      0.000     0.000    0.0044
   08/03/2005 21:25:00      0.000     0.000    0.0044
   08/03/2005 21:30:00      0.000     0.000    0.0043
   08/03/2005 21:35:00      0.000     0.000    0.0042
   08/03/2005 21:40:00      0.000     0.000    0.0042
   08/03/2005 21:45:00      0.000     0.000    0.0041
   08/03/2005 21:50:00      0.000     0.000    0.0041
   08/03/2005 21:55:00      0.000     0.000    0.0040
   08/03/2005 22:00:00      0.000     0.000    0.0040
   08/03/2005 22:05:00      0.000     0.000    0.0039
   08/03/2005 22:10:00      0.000     0.000    0.0039
   08/03/2005 22:15:00      0.000     0.000    0.0038
   08/03/2005 22:20:00      0.000     0.000    0.0038
   08/03/2005 22:25:00      0.000     0.000    0.0037
   08/03/2005 22:30:00      0.000     0.000    0.0037
   08/03/2005 22:35:00      0.000     0.000    0.0036
   08/03/2005 22:40:00      0.000     0.000    0.0036
   08/03/2005 22:45:00      0.000     0.000    0.0035
   08/03/2005 22:50:00      0.000     0.000    0.0035
   08/03/2005 22:55:00      0.000     0.000    0.0034
   08/03/2005 23:00:00      0.000     0.000    0.0034
   08/03/2005 23:05:00      0.000     0.000    0.0034
   08/03/2005 23:10:00      0.000     0.000    0.0033
   08/03/2005 23:15:00      0.000     0.000    0.0033
   08/03/2005 23:20:00      0.000     0.000    0.0032
   08/03/2005 23:25:00      0.000     0.000    0.0032
   08/03/2005 23:30:00      0.000     0.000    0.0032
   08/03/2005 23:35:00      0.000     0.000    0.0031
   08/03/2005 23:40:00      0.000     0.000    0.0031
   08/03/2005 23:45:00      0.000     0.000    0.0030
   08/03/2005 23:50:00      0.000     0.000    0.0030
   08/03/2005 23:55:00      0.000     0.000    0.0030
   08/04/2005 00:00:00      0.000     0.000    0.0029
   08/04/2005 00:05:00      0.000     0.000    0.0029
   08/04/2005 00:10:00      0.000     0.000    0.0029
   08/04/2005 00:15:00      0.000     0.000    0.0028
   08/04/2005 00:20:00      0.000     0.000    0.0028
   08/04/2005 00:25:00      0.000     0.000    0.0028
   08/04/2005 00:30:00      0.000     0.000    0.0027
   08/04/2005 00:35:00      0.000     0.000    0.0027
   08/04/2005 00:40:00      0.000     0.000    0.0027
   08/04/2005 00:45:00      0.000     0.000    0.0027
   08/04/2005 00:50:00      0.000     0.000    0.0026
   08/04/2005 00:55:00      0.000     0.000    0.0026
   08/04/2005 01:00:00      0.000     0.000    0.0026
   08/04/2005 01:05:00      0.000     0.000    0.0025
   08/04/2005 01:10:00      0.000     0.000    0.0025
   08/04/2005 01:15:00      0.000     0.000    0.0025
   08/04/2005 01:20:00      0.000     0.000    0.0025
   08/04/2005 01:25:00      0.000     0.000    0.0024
   08/04/2005 01:30:00      0.000     0.000    0.0024
   08/04/2005 01:35:00      0.000     0.000    0.0024
   08/04/2005 01:40:00      0.000     0.000    0.0024
   08/04/2005 01:45:00      0.000     0.000    0.0023
   08/04/2005 01:50:00      0.000     0.000    0.0023
   08/04/2005 01:55:00      0.000     0.000    0.0023
   08/04/2005 02:00:00      0.000     0.000    0.0023
   08/04/2005 02:05:00      0.000     0.000    0.0022
   08/04/2005 02:10:00      0.000     0.000    0.0022
   08/04/2005 02:15:00      0.000     0.000    0.0022
   08/04/2005 02:20:00      0.000     0.000    0.0022
   08/04/2005 02:25:00      0.000     0.000    0.0021
   08/04/2005 02:30:00      0.000     0.000    0.0021
   08/04/2005 02:35:00      0.000     0.000    0.0021
   08/04/2005 02:40:00      0.000     0.000    0.0021
   08/04/2005 02:45:00      0.000     0.000    0.0021
   08/04/2005 02:50:00      0.000     0.000    0.0020
   08/04/2005 02:55:00      0.000     0.000    0.0020
   08/04/2005 03:00:00      0.000     0.000    0.0020
   08/04/2005 03:05:00      0.000     0.000    0.0020
   08/04/2005 03:10:00      0.000     0.000    0.0020
   08/04/2005 03:15:00      0.000     0.000    0.0019
   08/04/2005 03:20:00      0.000     0.000    0.0019
   08/04/2005 03:25:00      0.000     0.000    0.0019
   08/04/2005 03:30:00      0.000     0.000    0.0019
   08/04/2005 03:35:00      0.000     0.000    0.0019
   08/04/2005 03:40:00      0.000     0.000    0.0018
   08/04/2005 03:45:00      0.000     0.000    0.0018
   08/04/2005 03:50:00      0.000     0.000    0.0018
   08/04/2005 03:55:00      0.000     0.000    0.0018
   08/04/2005 04:00:00      0.000     0.000    0.0018
   08/04/2005 04:05:00      0.000     0.000    0.0018
   08/04/2005 04:10:00      0.000     0.000    0.0017
   08/04/2005 04:15:00      0.000     0.000    0.0017
   08/04/2005 04:20:00      0.000     0.000    0.0017
   08/04/2005 04:25:00      0.000     0.000    0.0017
   08/04/2005 04:30:00      0.000     0.000    0.0017
   08/04/2005 04:35:00      0.000     0.000    0.0017
   08/04/2005 04:40:00      0.000     0.000    0.0016
   08/04/2005 04:45:00      0.000     0.000    0.0016
   08/04/2005 04:50:00      0.000     0.000    0.0016
   08/04/2005 04:55:00      0.000     0.000    0.0016
   08/04/2005 05:00:00      0.000     0.000    0.0016
   08/04/2005 05:05:00      0.000     0.000    0.0016
   08/04/2005 05:10:00      0.000     0.000    0.0016
   08/04/2005 05:15:00      0.000     0.000    0.0015
   08/04/2005 05:20:00      0.000     0.000    0.0015
   08/04/2005 05:25:00      0.000     0.000    0.0015
   08/04/2005 05:30:00      0.000     0.000    0.0015
   08/04/2005 05:35:00      0.000     0.000    0.0015
   08/04/2005 05:40:00      0.000     0.000    0.0015
   08/04/2005 05:45:00      0.000     0.000    0.0015
   08/04/2005 05:50:00      0.000     0.000    0.0014
   08/04/2005 05:55:00      0.000     0.000    0.0014
   08/04/2005 06:00:00      0.000     0.000    0.0014
   08/04/2005 06:05:00      0.000     0.000    0.0014
   08/04/2005 06:10:00      0.000     0.000    0.0014
   08/04/2005 06:15:00      0.000     0.000    0.0014
   08/04/2005 06:20:00      0.000     0.000    0.0014
   08/04/2005 06:25:00      0.000     0.000    0.0014
   08/04/2005 06:30:00      0.000     0.000    0.0013
   08/04/2005 06:35:00      0.000     0.000    0.0013
   08/04/2005 06:40:00      0.000     0.000    0.0013
   08/04/2005 06:45:00      0.000     0.000    0.0013
   08/04/2005 06:50:00      0.000     0.000    0.0013
   08/04/2005 06:55:00      0.000     0.000    0.0013
   08/04/2005 07:00:00      0.000     0.000    0.0013
   08/04/2005 07:05:00      0.000     0.000    0.0013
   08/04/2005 07:10:00      0.000     0.000    0.0013
   08/04/2005 07:15:00      0.000     0.000    0.0013
   08/04/2005 07:20:00      0.000     0.000    0.0012
   08/04/2005 07:25:00      0.000     0.000    0.0012
   08/04/2005 07:30:00      0.000     0.000    0.0012
   08/04/2005 07:35:00      0.000     0.000    0.0012
   08/04/2005 07:40:00      0.000     0.000    0.0012
   08/04/2005 07:45:00      0.000     0.000    0.0012
   08/04/2005 07:50:00      0.000     0.000    0.0012
   08/04/2005 07:55:00      0.000     0.000    0.0012
   08/04/2005 08:00:00      0.000     0.000    0.0012
   08/04/2005 08:05:00      0.000     0.000    0.0012
   08/04/2005 08:10:00      0.000     0.000    0.0011
   08/04/2005 08:15:00      0.000     0.000    0.0011
   08/04/2005 08:20:00      0.000     0.000    0.0011
   08/04/2005 08:25:00      0.000     0.000    0.0011
   08/04/2005 08:30:00      0.000     0.000    0.0011
   08/04/2005 08:35:00      0.000     0.000    0.0011
   08/04/2005 08:40:00      0.000     0.000    0.0011
   08/04/2005 08:45:00      0.000     0.000    0.0011
   08/04/2005 08:50:00      0.000     0.000    0.0011
   08/04/2005 08:55:00      0.000     0.000    0.0011
   08/04/2005 09:00:00      0.000     0.000    0.0011
   08/04/2005 09:05:00      0.000     0.000    0.0010
   08/04/2005 09:10:00      0.000     0.000    0.0010
   08/04/2005 09:15:00      0.000     0.000    0.0010
   08/04/2005 09:20:00      0.000     0.000    0.0010
   08/04/2005 09:25:00      0.000     0.000    0.0010
   08/04/2005 09:30:00      0.000     0.000    0.0010
   08/04/2005 09:35:00      0.000     0.000    0.0010
   08/04/2005 09:40:00      0.000     0.000    0.0010
   08/04/2005 09:45:00      0.000     0.000    0.0010
   08/04/2005 09:50:00      0.000     0.000    0.0010
   08/04/2005 09:55:00      0.000     0.000    0.0010
   08/04/2005 10:00:00      0.000     0.000    0.0010
   08/04/2005 10:05:00      0.000     0.000    0.0010
   08/04/2005 10:10:00      0.000     0.000    0.0010
   08/04/2005 10:15:00      0.000     0.000    0.0009
   08/04/2005 10:20:00      0.000     0.000    0.0009
   08/04/2005 10:25:00      0.000     0.000    0.0009
   08/04/2005 10:30:00      0.000     0.000    0.0009
   08/04/2005 10:35:00      0.000     0.000    0.0009
   08/04/2005 10:40:00      0.000     0.000    0.0009
   08/04/2005 10:45:00      0.000     0.000    0.0009
   08/04/2005 10:50:00      0.000     0.000    0.0009
   08/04/2005 10:55:00      0.000     0.000    0.0009
   08/04/2005 11:00:00      0.000     0.000    0.0009
   08/04/2005 11:05:00      0.000     0.000    0.0009
   08/04/2005 11:10:00      0.000     0.000    0.0009
   08/04/2005 11:15:00      0.000     0.000    0.0009
   08/04/2005 11:20:00      0.000     0.000    0.0009
   08/04/2005 11:25:00      0.000     0.000    0.0009
   08/04/2005 11:30:00      0.000     0.000    0.0008
   08/04/2005 11:35:00      0.000     0.000    0.0008
   08/04/2005 11:40:00      0.000     0.000    0.0008
   08/04/2005 11:45:00      0.000     0.000    0.0008
   08/04/2005 11:50:00      0.000     0.000    0.0008
   08/04/2005 11:55:00      0.000     0.000    0.0008
   08/04/2005 12:00:00      0.000     0.000    0.0008
   08/04/2005 12:05:00      0.000     0.000    0.0008
   08/04/2005 12:10:00      0.000     0.000    0.0008
   08/04/2005 12:15:00      0.000     0.000    0.0008
   08/04/2005 12:20:00      0.000     0.000    0.0008
   08/04/2005 12:25:00      0.000     0.000    0.0008
   08/04/2005 12:30:00      0.000     0.000    0.0008
   08/04/2005 12:35:00      0.000     0.000    0.0008
   08/04/2005 12:40:00      0.000     0.000    0.0008
   08/04/2005 12:45:00      0.000     0.000    0.0008
   08/04/2005 12:50:00      0.000     0.000    0.0008
   08/04/2005 12:55:00      0.000     0.000    0.0008
   08/04/2005 13:00:00      0.000     0.000    0.0007
   08/04/2005 13:05:00      0.000     0.000    0.0007
   08/04/2005 13:10:00      0.000     0.000    0.0007
   08/04/2005 13:15:00      0.000     0.000    0.0007
   08/04/2005 13:20:00      0.000     0.000    0.0007
   08/04/2005 13:25:00      0.000     0.000    0.0007
   08/04/2005 13:30:00      0.000     0.000    0.0007
   08/04/2005 13:35:00      0.000     0.000    0.0007
   08/04/2005 13:40:00      0.000     0.000    0.0007
   08/04/2005 13:45:00      0.000     0.000    0.0007
   08/04/2005 13:50:00      0.000     0.000    0.0007
   08/04/2005 13:55:00      0.000     0.000    0.0007
   08/04/2005 14:00:00      0.000     0.000    0.0007
   08/04/2005 14:05:00      0.000     0.000    0.0007
   08/04/2005 14:10:00      0.000     0.000    0.0007
   08/04/2005 14:15:00      0.000     0.000    0.0007
   08/04/2005 14:20:00      0.000     0.000    0.0007
   08/04/2005 14:25:00      0.000     0.000    0.0007
   08/04/2005 14:30:00      0.000     0.000    0.0007
   08/04/2005 14:35:00      0.000     0.000    0.0007
   08/04/2005 14:40:00      0.000     0.000    0.0007
   08/04/2005 14:45:00      0.000     0.000    0.0007
   08/04/2005 14:50:00      0.000     0.000    0.0006
   08/04/2005 14:55:00      0.000     0.000    0.0006
   08/04/2005 15:00:00      0.000     0.000    0.0006
   08/04/2005 15:05:00      0.000     0.000    0.0006
   08/04/2005 15:10:00      0.000     0.000    0.0006
   08/04/2005 15:15:00      0.000     0.000    0.0006
   08/04/2005 15:20:00      0.000     0.000    0.0006
   08/04/2005 15:25:00      0.000     0.000    0.0006
   08/04/2005 15:30:00      0.000     0.000    0.0006
   08/04/2005 15:35:00      0.000     0.000    0.0006
   08/04/2005 15:40:00      0.000     0.000    0.0006
   08/04/2005 15:45:00      0.000     0.000    0.0006
   08/04/2005 15:50:00      0.000     0.000    0.0006
   08/04/2005 15:55:00      0.000     0.000    0.0006
   08/04/2005 16:00:00      0.000     0.000    0.0006
   08/04/2005 16:05:00      0.000     0.000    0.0006
   08/04/2005 16:10:00      0.000     0.000    0.0006
   08/04/2005 16:15:00      0.000     0.000    0.0006
   08/04/2005 16:20:00      0.000     0.000    0.0006
   08/04/2005 16:25:00      0.000     0.000    0.0006
   08/04/2005 16:30:00      0.000     0.000    0.0006
   08/04/2005 16:35:00      0.000     0.000    0.0006
   08/04/2005 16:40:00      0.000     0.000    0.0006
   08/04/2005 16:45:00      0.000     0.000    0.0006
   08/04/2005 16:50:00      0.000     0.000    0.0006
   08/04/2005 16:55:00      0.000     0.000    0.0006
   08/04/2005 17:00:00      0.000     0.000    0.0006
   08/04/2005 17:05:00      0.000     0.000    0.0005
   08/04/2005 17:10:00      0.000     0.000    0.0005
   08/04/2005 17:15:00      0.000     0.000    0.0005
   08/04/2005 17:20:00      0.000     0.000    0.0005
   08/04/2005 17:25:00      0.000     0.000    0.0005
   08/04/2005 17:30:00      0.000     0.000    0.0005
   08/04/2005 17:35:00      0.000     0.000    0.0005
   08/04/2005 17:40:00      0.000     0.000    0.0005
   08/04/2005 17:45:00      0.000     0.000    0.0005
   08/04/2005 17:50:00      0.000     0.000    0.0005
   08/04/2005 17:55:00      0.000     0.000    0.0005
   08/04/2005 18:00:00      0.000     0.000    0.0005
   08/04/2005 18:05:00      0.000     0.000    0.0000
   08/04/2005 18:10:00      0.000     0.000    0.0000
   08/04/2005 18:15:00      0.000     0.000    0.0000
   08/04/2005 18:20:00      0.000     0.000    0.0000
   08/04/2005 18:25:00      0.000     0.000    0.0000
   08/04/2005 18:30:00      0.000     0.000    0.0000
   08/04/2005 18:35:00      0.000     0.000    0.0000
   08/04/2005 18:40:00      0.000     0.000    0.0000
   08/04/2005 18:45:00      0.000     0.000    0.0000
   08/04/2005 18:50:00      0.000     0.000    0.0000
   08/04/2005 18:55:00      0.000     0.000    0.0000
   08/04/2005 19:00:00      0.000     0.000    0.0000
   08/04/2005 19:05:00      0.000     0.000    0.0000
   08/04/2005 19:10:00      0.000     0.000    0.0000
   08/04/2005 19:15:00      0.000     0.000    0.0000
   08/04/2005 19:20:00      0.000     0.000    0.0000
   08/04/2005 19:25:00      0.000     0.000    0.0000
   08/04/2005 19:30:00      0.000     0.000    0.0000
   08/04/2005 19:35:00      0.000     0.000    0.0000
   08/04/2005 19:40:00      0.000     0.000    0.0000
   08/04/2005 19:45:00      0.000     0.000    0.0000
   08/04/2005 19:50:00      0.000     0.000    0.0000
   08/04/2005 19:55:00      0.000     0.000    0.0000
   08/04/2005 20:00:00      0.000     0.000    0.0000
   08/04/2005 20:05:00      0.000     0.000    0.0000
   08/04/2005 20:10:00      0.000     0.000    0.0000
   08/04/2005 20:15:00      0.000     0.000    0.0000
   08/04/2005 20:20:00      0.000     0.000    0.0000
   08/04/2005 20:25:00      0.000     0.000    0.0000
   08/04/2005 20:30:00      0.000     0.000    0.0000
   08/04/2005 20:35:00      0.000     0.000    0.0000
   08/04/2005 20:40:00      0.000     0.000    0.0000
   08/04/2005 20:45:00      0.000     0.000    0.0000
   08/04/2005 20:50:00      0.000     0.000    0.0000
   08/04/2005 20:55:00      0.000     0.000    0.0000
   08/04/2005 21:00:00      0.000     0.000    0.0000
   08/04/2005 21:05:00      0.000     0.000    0.0000
   08/04/2005 21:10:00      0.000     0.000    0.0000
   08/04/2005 21:15:00      0.000     0.000    0.0000
   08/04/2005 21:20:00      0.000     0.000    0.0000
   08/04/2005 21:25:00      0.000     0.000    0.0000
   08/04/2005 21:30:00      0.000     0.000    0.0000
   08/04/2005 21:35:00      0.000     0.000    0.0000
   08/04/2005 21:40:00      0.000     0.000    0.0000
   08/04/2005 21:45:00      0.000     0.000    0.0000
   08/04/2005 21:50:00      0.000     0.000    0.0000
   08/04/2005 21:55:00      0.000     0.000    0.0000
   08/04/2005 22:00:00      0.000     0.000    0.0000
   08/04/2005 22:05:00      0.000     0.000    0.0000
   08/04/2005 22:10:00      0.000     0.000    0.0000
   08/04/2005 22:15:00      0.000     0.000    0.0000
   08/04/2005 22:20:00      0.000     0.000    0.0000
   08/04/2005 22:25:00      0.000     0.000    0.0000
   08/04/2005 22:30:00      0.000     0.000    0.0000
   08/04/2005 22:35:00      0.000     0.000    0.0000
   08/04/2005 22:40:00      0.000     0.000    0.0000
   08/04/2005 22:45:00      0.000     0.000    0.0000
   08/04/2005 22:50:00      0.000     0.000    0.0000
   08/04/2005 22:55:00      0.000     0.000    0.0000
   08/04/2005 23:00:00      0.000     0.000    0.0000
   08/04/2005 23:05:00      0.000     0.000    0.0000
   08/04/2005 23:10:00      0.000     0.000    0.0000
   08/04/2005 23:15:00      0.000     0.000    0.0000
   08/04/2005 23:20:00      0.000     0.000    0.0000
   08/04/2005 23:25:00      0.000     0.000    0.0000
   08/04/2005 23:30:00      0.000     0.000    0.0000
   08/04/2005 23:35:00      0.000     0.000    0.0000
[...]
   08/03/2005 22:10:00      0.026     0.985     0.065     0.017
   08/03/2005 22:15:00      0.026     0.983     0.065     0.017
   08/03/2005 22:20:00      0.026     0.980     0.065     0.017
   08/03/2005 22:25:00      0.025     0.978     0.065     0.017
   08/03/2005 22:30:00      0.025     0.976     0.064     0.017
   08/03/2005 22:35:00      0.025     0.974     0.064     0.017
   08/03/2005 22:40:00      0.025     0.972     0.064     0.016
   08/03/2005 22:45:00      0.024     0.970     0.063     0.016
   08/03/2005 22:50:00      0.024     0.968     0.063     0.016
   08/03/2005 22:55:00      0.024     0.966     0.063     0.016
   08/03/2005 23:00:00      0.024     0.964     0.063     0.016
   08/03/2005 23:05:00      0.024     0.962     0.062     0.016
   08/03/2005 23:10:00      0.023     0.960     0.062     0.016
   08/03/2005 23:15:00      0.023     0.958     0.062     0.016
   08/03/2005 23:20:00      0.023     0.956     0.062     0.016
   08/03/2005 23:25:00      0.023     0.955     0.061     0.016
   08/03/2005 23:30:00      0.023     0.953     0.061     0.015
   08/03/2005 23:35:00      0.022     0.951     0.061     0.015
   08/03/2005 23:40:00      0.022     0.949     0.061     0.015
   08/03/2005 23:45:00      0.022     0.947     0.060     0.015
   08/03/2005 23:50:00      0.022     0.946     0.060     0.015
   08/03/2005 23:55:00      0.022     0.944     0.060     0.015
   08/04/2005 00:00:00      0.022     0.942     0.060     0.015
   08/04/2005 00:05:00      0.021     0.941     0.059     0.015
   08/04/2005 00:10:00      0.021     0.939     0.059     0.015
   08/04/2005 00:15:00      0.021     0.937     0.059     0.015
   08/04/2005 00:20:00      0.021     0.936     0.059     0.014
   08/04/2005 00:25:00      0.021     0.934     0.058     0.014
   08/04/2005 00:30:00      0.020     0.932     0.058     0.014
   08/04/2005 00:35:00      0.020     0.931     0.058     0.014
   08/04/2005 00:40:00      0.020     0.929     0.058     0.014
   08/04/2005 00:45:00      0.020     0.928     0.057     0.014
   08/04/2005 00:50:00      0.020     0.926     0.057     0.014
   08/04/2005 00:55:00      0.020     0.925     0.057     0.014
   08/04/2005 01:00:00      0.020     0.923     0.057     0.014
   08/04/2005 01:05:00      0.019     0.922     0.057     0.014
   08/04/2005 01:10:00      0.019     0.920     0.056     0.014
   08/04/2005 01:15:00      0.019     0.919     0.056     0.013
   08/04/2005 01:20:00      0.019     0.917     0.056     0.013
   08/04/2005 01:25:00      0.019     0.916     0.056     0.013
   08/04/2005 01:30:00      0.019     0.914     0.056     0.013
   08/04/2005 01:35:00      0.018     0.912     0.055     0.013
   08/04/2005 01:40:00      0.018     0.910     0.055     0.013
   08/04/2005 01:45:00      0.018     0.908     0.055     0.013
   08/04/2005 01:50:00      0.018     0.906     0.055     0.013
   08/04/2005 01:55:00      0.018     0.904     0.054     0.013
   08/04/2005 02:00:00      0.018     0.902     0.054     0.013
   08/04/2005 02:05:00      0.018     0.901     0.054     0.013
   08/04/2005 02:10:00      0.018     0.899     0.054     0.013
   08/04/2005 02:15:00      0.017     0.897     0.054     0.013
   08/04/2005 02:20:00      0.017     0.895     0.053     0.013
   08/04/2005 02:25:00      0.017     0.893     0.053     0.012
   08/04/2005 02:30:00      0.017     0.892     0.053     0.012
   08/04/2005 02:35:00      0.017     0.890     0.053     0.012
   08/04/2005 02:40:00      0.017     0.888     0.053     0.012
   08/04/2005 02:45:00      0.017     0.886     0.052     0.012
   08/04/2005 02:50:00      0.016     0.884     0.052     0.012
   08/04/2005 02:55:00      0.016     0.883     0.052     0.012
   08/04/2005 03:00:00      0.016     0.881     0.052     0.012
   08/04/2005 03:05:00      0.016     0.879     0.052     0.012
   08/04/2005 03:10:00      0.016     0.877     0.052     0.012
   08/04/2005 03:15:00      0.016     0.876     0.051     0.012
   08/04/2005 03:20:00      0.016     0.874     0.051     0.012
   08/04/2005 03:25:00      0.016     0.872     0.051     0.012
   08/04/2005 03:30:00      0.016     0.871     0.051     0.012
   08/04/2005 03:35:00      0.015     0.869     0.051     0.012
   08/04/2005 03:40:00      0.015     0.867     0.050     0.011
   08/04/2005 03:45:00      0.015     0.866     0.050     0.011
   08/04/2005 03:50:00      0.015     0.864     0.050     0.011
   08/04/2005 03:55:00      0.015     0.863     0.050     0.011
   08/04/2005 04:00:00      0.015     0.861     0.050     0.011
   08/04/2005 04:05:00      0.015     0.860     0.050     0.011
   08/04/2005 04:10:00      0.015     0.858     0.049     0.011
   08/04/2005 04:15:00      0.015     0.856     0.049     0.011
   08/04/2005 04:20:00      0.014     0.855     0.049     0.011
   08/04/2005 04:25:00      0.014     0.853     0.049     0.011
   08/04/2005 04:30:00      0.014     0.852     0.049     0.011
   08/04/2005 04:35:00      0.014     0.850     0.048     0.011
   08/04/2005 04:40:00      0.014     0.849     0.048     0.011
   08/04/2005 04:45:00      0.014     0.847     0.048     0.011
   08/04/2005 04:50:00      0.014     0.846     0.048     0.011
   08/04/2005 04:55:00      0.014     0.844     0.048     0.011
   08/04/2005 05:00:00      0.014     0.843     0.048     0.011
   08/04/2005 05:05:00      0.014     0.841     0.047     0.011
   08/04/2005 05:10:00      0.014     0.840     0.047     0.010
   08/04/2005 05:15:00      0.013     0.839     0.047     0.010
   08/04/2005 05:20:00      0.013     0.837     0.047     0.010
   08/04/2005 05:25:00      0.013     0.836     0.047     0.010
   08/04/2005 05:30:00      0.013     0.834     0.047     0.010
   08/04/2005 05:35:00      0.013     0.833     0.047     0.010
   08/04/2005 05:40:00      0.013     0.832     0.046     0.010
   08/04/2005 05:45:00      0.013     0.830     0.046     0.010
   08/04/2005 05:50:00      0.013     0.829     0.046     0.010
   08/04/2005 05:55:00      0.013     0.827     0.046     0.010
   08/04/2005 06:00:00      0.013     0.826     0.046     0.010
   08/04/2005 06:05:00      0.013     0.825     0.046     0.010
   08/04/2005 06:10:00      0.012     0.823     0.045     0.010
   08/04/2005 06:15:00      0.012     0.822     0.045     0.010
   08/04/2005 06:20:00      0.012     0.821     0.045     0.010
   08/04/2005 06:25:00      0.012     0.819     0.045     0.010
   08/04/2005 06:30:00      0.012     0.818     0.045     0.010
   08/04/2005 06:35:00      0.012     0.817     0.045     0.010
   08/04/2005 06:40:00      0.012     0.815     0.045     0.010
   08/04/2005 06:45:00      0.012     0.814     0.044     0.010
   08/04/2005 06:50:00      0.012     0.813     0.044     0.009
   08/04/2005 06:55:00      0.012     0.811     0.044     0.009
   08/04/2005 07:00:00      0.012     0.810     0.044     0.009
   08/04/2005 07:05:00      0.012     0.809     0.044     0.009
   08/04/2005 07:10:00      0.012     0.808     0.044     0.009
   08/04/2005 07:15:00      0.011     0.806     0.044     0.009
   08/04/2005 07:20:00      0.011     0.805     0.043     0.009
   08/04/2005 07:25:00      0.011     0.804     0.043     0.009
   08/04/2005 07:30:00      0.011     0.803     0.043     0.009
   08/04/2005 07:35:00      0.011     0.801     0.043     0.009
   08/04/2005 07:40:00      0.011     0.800     0.043     0.009
   08/04/2005 07:45:00      0.011     0.799     0.043     0.009
   08/04/2005 07:50:00      0.011     0.798     0.043     0.009
   08/04/2005 07:55:00      0.011     0.796     0.042     0.009
   08/04/2005 08:00:00      0.011     0.795     0.042     0.009
   08/04/2005 08:05:00      0.011     0.794     0.042     0.009
   08/04/2005 08:10:00      0.011     0.793     0.042     0.009
   08/04/2005 08:15:00      0.011     0.792     0.042     0.009
   08/04/2005 08:20:00      0.011     0.790     0.042     0.009
   08/04/2005 08:25:00      0.010     0.789     0.042     0.009
   08/04/2005 08:30:00      0.010     0.788     0.041     0.009
   08/04/2005 08:35:00      0.010     0.787     0.041     0.009
   08/04/2005 08:40:00      0.010     0.786     0.041     0.009
   08/04/2005 08:45:00      0.010     0.784     0.041     0.008
   08/04/2005 08:50:00      0.010     0.783     0.041     0.008
   08/04/2005 08:55:00      0.010     0.782     0.041     0.008
   08/04/2005 09:00:00      0.010     0.781     0.041     0.008
   08/04/2005 09:05:00      0.010     0.780     0.041     0.008
   08/04/2005 09:10:00      0.010     0.779     0.040     0.008
   08/04/2005 09:15:00      0.010     0.778     0.040     0.008
   08/04/2005 09:20:00      0.010     0.777     0.040     0.008
   08/04/2005 09:25:00      0.010     0.775     0.040     0.008
   08/04/2005 09:30:00      0.010     0.774     0.040     0.008
   08/04/2005 09:35:00      0.010     0.773     0.040     0.008
   08/04/2005 09:40:00      0.010     0.772     0.040     0.008
   08/04/2005 09:45:00      0.010     0.771     0.040     0.008
   08/04/2005 09:50:00      0.009     0.770     0.039     0.008
   08/04/2005 09:55:00      0.009     0.769     0.039     0.008
   08/04/2005 10:00:00      0.009     0.768     0.039     0.008
   08/04/2005 10:05:00      0.009     0.767     0.039     0.008
   08/04/2005 10:10:00      0.009     0.766     0.039     0.008
   08/04/2005 10:15:00      0.009     0.765     0.039     0.008
   08/04/2005 10:20:00      0.009     0.764     0.039     0.008
   08/04/2005 10:25:00      0.009     0.762     0.039     0.008
   08/04/2005 10:30:00      0.009     0.761     0.039     0.008
   08/04/2005 10:35:00      0.009     0.760     0.038     0.008
   08/04/2005 10:40:00      0.009     0.759     0.038     0.008
   08/04/2005 10:45:00      0.009     0.758     0.038     0.008
   08/04/2005 10:50:00      0.009     0.757     0.038     0.008
   08/04/2005 10:55:00      0.009     0.756     0.038     0.008
   08/04/2005 11:00:00      0.009     0.755     0.038     0.008
   08/04/2005 11:05:00      0.009     0.754     0.038     0.007
   08/04/2005 11:10:00      0.009     0.753     0.038     0.007
   08/04/2005 11:15:00      0.009     0.752     0.038     0.007
   08/04/2005 11:20:00      0.009     0.751     0.037     0.007
   08/04/2005 11:25:00      0.008     0.750     0.037     0.007
   08/04/2005 11:30:00      0.008     0.749     0.037     0.007
   08/04/2005 11:35:00      0.008     0.748     0.037     0.007
   08/04/2005 11:40:00      0.008     0.747     0.037     0.007
   08/04/2005 11:45:00      0.008     0.746     0.037     0.007
   08/04/2005 11:50:00      0.008     0.745     0.037     0.007
   08/04/2005 11:55:00      0.008     0.744     0.037     0.007
   08/04/2005 12:00:00      0.008     0.743     0.037     0.007
   08/04/2005 12:05:00      0.008     0.743     0.036     0.007
   08/04/2005 12:10:00      0.008     0.742     0.036     0.007
   08/04/2005 12:15:00      0.008     0.741     0.036     0.007
   08/04/2005 12:20:00      0.008     0.740     0.036     0.007
   08/04/2005 12:25:00      0.008     0.739     0.036     0.007
   08/04/2005 12:30:00      0.008     0.738     0.036     0.007
   08/04/2005 12:35:00      0.008     0.737     0.036     0.007
   08/04/2005 12:40:00      0.008     0.736     0.036     0.007
   08/04/2005 12:45:00      0.008     0.735     0.036     0.007
   08/04/2005 12:50:00      0.008     0.734     0.036     0.007
   08/04/2005 12:55:00      0.008     0.733     0.035     0.007
   08/04/2005 13:00:00      0.008     0.732     0.035     0.007
   08/04/2005 13:05:00      0.008     0.731     0.035     0.007
   08/04/2005 13:10:00      0.008     0.731     0.035     0.007
   08/04/2005 13:15:00      0.008     0.730     0.035     0.007
   08/04/2005 13:20:00      0.007     0.729     0.035     0.007
   08/04/2005 13:25:00      0.007     0.728     0.035     0.007
   08/04/2005 13:30:00      0.007     0.727     0.035     0.007
   08/04/2005 13:35:00      0.007     0.726     0.035     0.007
   08/04/2005 13:40:00      0.007     0.725     0.035     0.007
   08/04/2005 13:45:00      0.007     0.724     0.035     0.007
   08/04/2005 13:50:00      0.007     0.724     0.034     0.006
   08/04/2005 13:55:00      0.007     0.723     0.034     0.006
   08/04/2005 14:00:00      0.007     0.722     0.034     0.006
   08/04/2005 14:05:00      0.007     0.721     0.034     0.006
   08/04/2005 14:10:00      0.007     0.720     0.034     0.006
   08/04/2005 14:15:00      0.007     0.719     0.034     0.006
   08/04/2005 14:20:00      0.007     0.719     0.034     0.006
   08/04/2005 14:25:00      0.007     0.718     0.034     0.006
   08/04/2005 14:30:00      0.007     0.717     0.034     0.006
   08/04/2005 14:35:00      0.007     0.716     0.034     0.006
   08/04/2005 14:40:00      0.007     0.715     0.034     0.006
   08/04/2005 14:45:00      0.007     0.714     0.033     0.006
   08/04/2005 14:50:00      0.007     0.714     0.033     0.006
   08/04/2005 14:55:00      0.007     0.713     0.033     0.006
   08/04/2005 15:00:00      0.007     0.712     0.033     0.006
   08/04/2005 15:05:00      0.007     0.711     0.033     0.006
   08/04/2005 15:10:00      0.007     0.710     0.033     0.006
   08/04/2005 15:15:00      0.007     0.710     0.033     0.006
   08/04/2005 15:20:00      0.007     0.709     0.033     0.006
   08/04/2005 15:25:00      0.007     0.708     0.033     0.006
   08/04/2005 15:30:00      0.007     0.707     0.033     0.006
   08/04/2005 15:35:00      0.006     0.706     0.033     0.006
   08/04/2005 15:40:00      0.006     0.706     0.032     0.006
   08/04/2005 15:45:00      0.006     0.705     0.032     0.006
   08/04/2005 15:50:00      0.006     0.704     0.032     0.006
   08/04/2005 15:55:00      0.006     0.703     0.032     0.006
   08/04/2005 16:00:00      0.006     0.703     0.032     0.006
   08/04/2005 16:05:00      0.006     0.702     0.032     0.006
   08/04/2005 16:10:00      0.006     0.701     0.032     0.006
   08/04/2005 16:15:00      0.006     0.700     0.032     0.006
   08/04/2005 16:20:00      0.006     0.700     0.032     0.006
   08/04/2005 16:25:00      0.006     0.699     0.032     0.006
   08/04/2005 16:30:00      0.006     0.698     0.032     0.006
   08/04/2005 16:35:00      0.006     0.697     0.032     0.006
   08/04/2005 16:40:00      0.006     0.697     0.031     0.006
   08/04/2005 16:45:00      0.006     0.696     0.031     0.006
   08/04/2005 16:50:00      0.006     0.695     0.031     0.006
   08/04/2005 16:55:00      0.006     0.695     0.031     0.006
   08/04/2005 17:00:00      0.006     0.694     0.031     0.006
   08/04/2005 17:05:00      0.006     0.693     0.031     0.006
   08/04/2005 17:10:00      0.006     0.692     0.031     0.006
   08/04/2005 17:15:00      0.006     0.692     0.031     0.006
   08/04/2005 17:20:00      0.006     0.691     0.031     0.005
   08/04/2005 17:25:00      0.006     0.690     0.031     0.005
   08/04/2005 17:30:00      0.006     0.690     0.031     0.005
   08/04/2005 17:35:00      0.006     0.689     0.031     0.005
   08/04/2005 17:40:00      0.006     0.688     0.031     0.005
   08/04/2005 17:45:00      0.006     0.688     0.030     0.005
   08/04/2005 17:50:00      0.006     0.687     0.030     0.005
   08/04/2005 17:55:00      0.006     0.686     0.030     0.005
   08/04/2005 18:00:00      0.006     0.686     0.030     0.005
   08/04/2005 18:05:00      0.006     0.685     0.030     0.005
   08/04/2005 18:10:00      0.006     0.684     0.030     0.005
   08/04/2005 18:15:00      0.006     0.684     0.030     0.005
   08/04/2005 18:20:00      0.006     0.683     0.030     0.005
   08/04/2005 18:25:00      0.005     0.682     0.030     0.005
   08/04/2005 18:30:00      0.005     0.682     0.030     0.005
   08/04/2005 18:35:00      0.005     0.681     0.030     0.005
   08/04/2005 18:40:00      0.005     0.680     0.030     0.005
   08/04/2005 18:45:00      0.005     0.680     0.030     0.005
   08/04/2005 18:50:00      0.005     0.679     0.030     0.005
   08/04/2005 18:55:00      0.005     0.678     0.029     0.005
   08/04/2005 19:00:00      0.005     0.678     0.029     0.005
   08/04/2005 19:05:00      0.005     0.677     0.029     0.005
   08/04/2005 19:10:00      0.005     0.676     0.029     0.005
   08/04/2005 19:15:00      0.005     0.676     0.029     0.005
   08/04/2005 19:20:00      0.005     0.675     0.029     0.005
   08/04/2005 19:25:00      0.005     0.675     0.029     0.005
   08/04/2005 19:30:00      0.005     0.674     0.029     0.005
   08/04/2005 19:35:00      0.005     0.673     0.029     0.005
   08/04/2005 19:40:00      0.005     0.673     0.029     0.005
   08/04/2005 19:45:00      0.005     0.672     0.029     0.005
   08/04/2005 19:50:00      0.005     0.672     0.029     0.005
   08/04/2005 19:55:00      0.005     0.671     0.029     0.005
   08/04/2005 20:00:00      0.005     0.670     0.029     0.005
   08/04/2005 20:05:00      0.005     0.670     0.029     0.005
   08/04/2005 20:10:00      0.005     0.669     0.028     0.005
   08/04/2005 20:15:00      0.005     0.669     0.028     0.005
   08/04/2005 20:20:00      0.005     0.668     0.028     0.005
   08/04/2005 20:25:00      0.005     0.667     0.028     0.005
   08/04/2005 20:30:00      0.005     0.667     0.028     0.005
   08/04/2005 20:35:00      0.005     0.666     0.028     0.005
   08/04/2005 20:40:00      0.005     0.666     0.028     0.005
   08/04/2005 20:45:00      0.005     0.665     0.028     0.005
   08/04/2005 20:50:00      0.005     0.664     0.028     0.005
   08/04/2005 20:55:00      0.005     0.664     0.028     0.005
   08/04/2005 21:00:00      0.005     0.663     0.028     0.005
   08/04/2005 21:05:00      0.005     0.662     0.028     0.005
   08/04/2005 21:10:00      0.005     0.661     0.028     0.005
   08/04/2005 21:15:00      0.005     0.660     0.028     0.005
   08/04/2005 21:20:00      0.005     0.660     0.028     0.005
   08/04/2005 21:25:00      0.005     0.659     0.027     0.005
   08/04/2005 21:30:00      0.005     0.658     0.027     0.005
   08/04/2005 21:35:00      0.005     0.657     0.027     0.005
   08/04/2005 21:40:00      0.005     0.657     0.027     0.005
   08/04/2005 21:45:00      0.005     0.656     0.027     0.005
   08/04/2005 21:50:00      0.005     0.655     0.027     0.005
   08/04/2005 21:55:00      0.005     0.654     0.027     0.004
   08/04/2005 22:00:00      0.005     0.654     0.027     0.004
   08/04/2005 22:05:00      0.004     0.653     0.027     0.004
   08/04/2005 22:10:00      0.004     0.652     0.027     0.004
   08/04/2005 22:15:00      0.004     0.651     0.027     0.004
   08/04/2005 22:20:00      0.004     0.651     0.027     0.004
   08/04/2005 22:25:00      0.004     0.650     0.027     0.004
   08/04/2005 22:30:00      0.004     0.649     0.027     0.004
   08/04/2005 22:35:00      0.004     0.648     0.027     0.004
   08/04/2005 22:40:00      0.004     0.648     0.027     0.004
   08/04/2005 22:45:00      0.004     0.647     0.026     0.004
   08/04/2005 22:50:00      0.004     0.646     0.026     0.004
   08/04/2005 22:55:00      0.004     0.645     0.026     0.004
   08/04/2005 23:00:00      0.004     0.645     0.026     0.004
   08/04/2005 23:05:00      0.004     0.644     0.026     0.004
   08/04/2005 23:10:00      0.004     0.643     0.026     0.004
   08/04/2005 23:15:00      0.004     0.643     0.026     0.004
   08/04/2005 23:20:00      0.004     0.642     0.026     0.004
   08/04/2005 23:25:00      0.004     0.641     0.026     0.004
   08/04/2005 23:30:00      0.004     0.640     0.026     0.004
   08/04/2005 23:35:00      0.004     0.640     0.026     0.004
   08/04/2005 23:40:00      0.004     0.639     0.026     0.004
   08/04/2005 23:45:00      0.004     0.638     0.026     0.004
   08/04/2005 23:50:00      0.004     0.638     0.026     0.004
   08/04/2005 23:55:00      0.004     0.637     0.026     0.004
  

  Analysis begun on:  Tue Apr 23 11:07:41 2019
  Analysis ended on:  Tue Apr 23 11:07:43 2019
  Total elapsed time: 00:00:02